

        *** GPGPU-Sim Simulator Version 3.2.2  [build 0] ***


GPGPU-Sim PTX: simulation mode 0 (can change with PTX_SIM_MODE_FUNC environment variable:
               1=functional simulation only, 0=detailed performance simulator)
GPGPU-Sim PTX: overriding embedded ptx with ptx file (PTX_SIM_USE_PTX_FILE is set)
DEBUG2 File name parsing = test.ptx
GPGPU-Sim: Configuration options:

-network_mode                           1 # Interconnection network mode
-inter_config_file   config_fermi_islip.icnt # Interconnection network config file
-gpgpu_ptx_use_cuobjdump                    1 # Use cuobjdump to extract ptx and sass from binaries
-gpgpu_experimental_lib_support                    0 # Try to extract code from cuda libraries [Broken because of unknown cudaGetExportTable]
-gpgpu_ptx_convert_to_ptxplus                    0 # Convert SASS (native ISA) to ptxplus and run ptxplus
-gpgpu_ptx_force_max_capability                   20 # Force maximum compute capability
-gpgpu_ptx_inst_debug_to_file                    0 # Dump executed instructions' debug information to file
-gpgpu_ptx_inst_debug_file       inst_debug.txt # Executed instructions' debug output file
-gpgpu_ptx_inst_debug_thread_uid                    1 # Thread UID for executed instructions' debug output
-gpgpu_simd_model                       1 # 1 = post-dominator
-gpgpu_shader_core_pipeline              1536:32 # shader core pipeline config, i.e., {<nthread>:<warpsize>}
-gpgpu_tex_cache:l1  4:128:24,L:R:m:N:L,F:128:4,128:2 # per-shader L1 texture cache  (READ-ONLY) config  {<nsets>:<bsize>:<assoc>,<rep>:<wr>:<alloc>:<wr_alloc>,<mshr>:<N>:<merge>,<mq>:<rf>}
-gpgpu_const_cache:l1 64:64:2,L:R:f:N:L,A:2:32,4 # per-shader L1 constant memory cache  (READ-ONLY) config  {<nsets>:<bsize>:<assoc>,<rep>:<wr>:<alloc>:<wr_alloc>,<mshr>:<N>:<merge>,<mq>} 
-gpgpu_cache:il1     4:128:4,L:R:f:N:L,A:2:32,4 # shader L1 instruction cache config  {<nsets>:<bsize>:<assoc>,<rep>:<wr>:<alloc>:<wr_alloc>,<mshr>:<N>:<merge>,<mq>} 
-gpgpu_cache:dl1     32:128:4,L:L:m:N:H,A:32:8,8 # per-shader L1 data cache config  {<nsets>:<bsize>:<assoc>,<rep>:<wr>:<alloc>:<wr_alloc>,<mshr>:<N>:<merge>,<mq> | none}
-gpgpu_cache:dl1PrefL1                 none # per-shader L1 data cache config  {<nsets>:<bsize>:<assoc>,<rep>:<wr>:<alloc>:<wr_alloc>,<mshr>:<N>:<merge>,<mq> | none}
-gpgpu_cache:dl1PreShared                 none # per-shader L1 data cache config  {<nsets>:<bsize>:<assoc>,<rep>:<wr>:<alloc>:<wr_alloc>,<mshr>:<N>:<merge>,<mq> | none}
-gmem_skip_L1D                          0 # global memory access skip L1D cache (implements -Xptxas -dlcm=cg, default=no skip)
-gpgpu_perfect_mem                      0 # enable perfect memory mode (no cache miss)
-n_regfile_gating_group                    4 # group of lanes that should be read/written together)
-gpgpu_clock_gated_reg_file                    0 # enable clock gated reg file for power calculations
-gpgpu_clock_gated_lanes                    0 # enable clock gated lanes for power calculations
-gpgpu_shader_registers                32768 # Number of registers per shader core. Limits number of concurrent CTAs. (default 8192)
-gpgpu_shader_cta                       8 # Maximum number of concurrent CTAs in shader (default 8)
-gpgpu_num_cta_barriers                   16 # Maximum number of named barriers per CTA (default 16)
-gpgpu_n_clusters                      15 # number of processing clusters
-gpgpu_n_cores_per_cluster                    1 # number of simd cores per cluster
-gpgpu_n_cluster_ejection_buffer_size                    8 # number of packets in ejection buffer
-gpgpu_n_ldst_response_buffer_size                    2 # number of response packets in ld/st unit ejection buffer
-gpgpu_shmem_size                   16384 # Size of shared memory per shader core (default 16kB)
-gpgpu_shmem_size                   49152 # Size of shared memory per shader core (default 16kB)
-gpgpu_shmem_size_PrefL1                16384 # Size of shared memory per shader core (default 16kB)
-gpgpu_shmem_size_PrefShared                16384 # Size of shared memory per shader core (default 16kB)
-gpgpu_shmem_num_banks                   32 # Number of banks in the shared memory in each shader core (default 16)
-gpgpu_shmem_limited_broadcast                    0 # Limit shared memory to do one broadcast per cycle (default on)
-gpgpu_shmem_warp_parts                    1 # Number of portions a warp is divided into for shared memory bank conflict check 
-gpgpu_warpdistro_shader                   -1 # Specify which shader core to collect the warp size distribution from
-gpgpu_warp_issue_shader                    0 # Specify which shader core to collect the warp issue distribution from
-gpgpu_local_mem_map                    1 # Mapping from local memory space address to simulated GPU physical address space (default = enabled)
-gpgpu_num_reg_banks                   16 # Number of register banks (default = 8)
-gpgpu_reg_bank_use_warp_id                    0 # Use warp ID in mapping registers to banks (default = off)
-gpgpu_operand_collector_num_units_sp                    6 # number of collector units (default = 4)
-gpgpu_operand_collector_num_units_sfu                    8 # number of collector units (default = 4)
-gpgpu_operand_collector_num_units_mem                    2 # number of collector units (default = 2)
-gpgpu_operand_collector_num_units_gen                    0 # number of collector units (default = 0)
-gpgpu_operand_collector_num_in_ports_sp                    2 # number of collector unit in ports (default = 1)
-gpgpu_operand_collector_num_in_ports_sfu                    1 # number of collector unit in ports (default = 1)
-gpgpu_operand_collector_num_in_ports_mem                    1 # number of collector unit in ports (default = 1)
-gpgpu_operand_collector_num_in_ports_gen                    0 # number of collector unit in ports (default = 0)
-gpgpu_operand_collector_num_out_ports_sp                    2 # number of collector unit in ports (default = 1)
-gpgpu_operand_collector_num_out_ports_sfu                    1 # number of collector unit in ports (default = 1)
-gpgpu_operand_collector_num_out_ports_mem                    1 # number of collector unit in ports (default = 1)
-gpgpu_operand_collector_num_out_ports_gen                    0 # number of collector unit in ports (default = 0)
-gpgpu_coalesce_arch                   13 # Coalescing arch (default = 13, anything else is off for now)
-gpgpu_num_sched_per_core                    2 # Number of warp schedulers per core
-gpgpu_max_insn_issue_per_warp                    1 # Max number of instructions that can be issued per warp in one cycle by scheduler
-gpgpu_simt_core_sim_order                    1 # Select the simulation order of cores in a cluster (0=Fix, 1=Round-Robin)
-gpgpu_pipeline_widths        2,1,1,2,1,1,2 # Pipeline widths ID_OC_SP,ID_OC_SFU,ID_OC_MEM,OC_EX_SP,OC_EX_SFU,OC_EX_MEM,EX_WB
-gpgpu_num_sp_units                     2 # Number of SP units (default=1)
-gpgpu_num_sfu_units                    1 # Number of SF units (default=1)
-gpgpu_num_mem_units                    1 # Number if ldst units (default=1) WARNING: not hooked up to anything
-gpgpu_scheduler                      gto # Scheduler configuration: < lrr | gto | two_level_active > If two_level_active:<num_active_warps>:<inner_prioritization>:<outer_prioritization>For complete list of prioritization values see shader.h enum scheduler_prioritization_typeDefault: gto
-gpgpu_dram_scheduler                    1 # 0 = fifo, 1 = FR-FCFS (defaul)
-gpgpu_dram_partition_queues              8:8:8:8 # i2$:$2d:d2$:$2i
-l2_ideal                               0 # Use a ideal L2 cache that always hit
-gpgpu_cache:dl2     64:128:8,L:B:m:W:L,A:32:4,4:0,32 # unified banked L2 data cache config  {<nsets>:<bsize>:<assoc>,<rep>:<wr>:<alloc>:<wr_alloc>,<mshr>:<N>:<merge>,<mq>}
-gpgpu_cache:dl2_texture_only                    0 # L2 cache used for texture only
-gpgpu_n_mem                            6 # number of memory modules (e.g. memory controllers) in gpu
-gpgpu_n_sub_partition_per_mchannel                    2 # number of memory subpartition in each memory module
-gpgpu_n_mem_per_ctrlr                    2 # number of memory chips per memory controller
-gpgpu_memlatency_stat                   14 # track and display latency statistics 0x2 enables MC, 0x4 enables queue logs
-gpgpu_frfcfs_dram_sched_queue_size                   16 # 0 = unlimited (default); # entries per chip
-gpgpu_dram_return_queue_size                  116 # 0 = unlimited (default); # entries per chip
-gpgpu_dram_buswidth                    4 # default = 4 bytes (8 bytes per cycle at DDR)
-gpgpu_dram_burst_length                    8 # Burst length of each DRAM request (default = 4 data bus cycle)
-dram_data_command_freq_ratio                    4 # Frequency ratio between DRAM data bus and command bus (default = 2 times, i.e. DDR)
-gpgpu_dram_timing_opt nbk=16:CCD=2:RRD=6:RCD=12:RAS=28:RP=12:RC=40: CL=12:WL=4:CDLR=5:WR=12:nbkgrp=4:CCDL=3:RTPL=2 # DRAM timing parameters = {nbk:tCCD:tRRD:tRCD:tRAS:tRP:tRC:CL:WL:tCDLR:tWR:nbkgrp:tCCDL:tRTPL}
-rop_latency                          120 # ROP queue latency (default 85)
-dram_latency                         100 # DRAM latency (default 30)
-gpgpu_mem_addr_mapping dramid@8;00000000.00000000.00000000.00000000.0000RRRR.RRRRRRRR.BBBCCCCB.CCSSSSSS # mapping memory address to dram model {dramid@<start bit>;<memory address map>}
-gpgpu_mem_addr_test                    0 # run sweep test to check address mapping for aliased address
-gpgpu_mem_address_mask                    1 # 0 = old addressing mask, 1 = new addressing mask, 2 = new add. mask + flipped bank sel and chip sel bits
-gpuwattch_xml_file  gpuwattch_gtx480.xml # GPUWattch XML file
-power_simulation_enabled                    1 # Turn on power simulator (1=On, 0=Off)
-power_per_cycle_dump                    0 # Dump detailed power output each cycle
-power_trace_enabled                    0 # produce a file for the power trace (1=On, 0=Off)
-power_trace_zlevel                     6 # Compression level of the power trace output log (0=no comp, 9=highest)
-steady_power_levels_enabled                    0 # produce a file for the steady power levels (1=On, 0=Off)
-steady_state_definition                  8:4 # allowed deviation:number of samples
-gpgpu_max_cycle                        0 # terminates gpu simulation early (0 = no limit)
-gpgpu_max_insn                         0 # terminates gpu simulation early (0 = no limit)
-gpgpu_max_cta                          0 # terminates gpu simulation early (0 = no limit)
-gpgpu_runtime_stat                   500 # display runtime statistics such as dram utilization {<freq>:<flag>}
-liveness_message_freq                    1 # Minimum number of seconds between simulation liveness messages (0 = always print)
-gpgpu_flush_l1_cache                    0 # Flush L1 cache at the end of each kernel call
-gpgpu_flush_l2_cache                    0 # Flush L2 cache at the end of each kernel call
-gpgpu_deadlock_detect                    1 # Stop the simulation at deadlock (1=on (default), 0=off)
-gpgpu_ptx_instruction_classification                    0 # if enabled will classify ptx instruction types per kernel (Max 255 kernels now)
-gpgpu_ptx_sim_mode                     0 # Select between Performance (default) or Functional simulation (1)
-gpgpu_clock_domains 700.0:700.0:700.0:924.0 # Clock Domain Frequencies in MhZ {<Core Clock>:<ICNT Clock>:<L2 Clock>:<DRAM Clock>}
-gpgpu_max_concurrent_kernel                    8 # maximum kernels that can run concurrently on GPU
-gpgpu_cflog_interval                    0 # Interval between each snapshot in control flow logger
-visualizer_enabled                     0 # Turn on visualizer output (1=On, 0=Off)
-visualizer_outputfile                 NULL # Specifies the output log file for visualizer
-visualizer_zlevel                      6 # Compression level of the visualizer output log (0=no comp, 9=highest)
-trace_enabled                          0 # Turn on traces
-trace_components                    none # comma seperated list of traces to enable. Complete list found in trace_streams.tup. Default none
-trace_sampling_core                    0 # The core which is printed using CORE_DPRINTF. Default 0
-trace_sampling_memory_partition                   -1 # The memory partition which is printed using MEMPART_DPRINTF. Default -1 (i.e. all)
-enable_ptx_file_line_stats                    1 # Turn on PTX source line statistic profiling. (1 = On)
-ptx_line_stats_filename gpgpu_inst_stats.txt # Output file for PTX source line statistics.
-save_embedded_ptx                      0 # saves ptx files embedded in binary as <n>.ptx
-keep                                   0 # keep intermediate files created by GPGPU-Sim when interfacing with external programs
-gpgpu_ptx_save_converted_ptxplus                    0 # Saved converted ptxplus to a file
-ptx_opcode_latency_int         4,13,4,5,145 # Opcode latencies for integers <ADD,MAX,MUL,MAD,DIV>Default 1,1,19,25,145
-ptx_opcode_latency_fp          4,13,4,5,39 # Opcode latencies for single precision floating points <ADD,MAX,MUL,MAD,DIV>Default 1,1,1,1,30
-ptx_opcode_latency_dp         8,19,8,8,330 # Opcode latencies for double precision floating points <ADD,MAX,MUL,MAD,DIV>Default 8,8,8,8,335
-ptx_opcode_initiation_int            1,2,2,1,8 # Opcode initiation intervals for integers <ADD,MAX,MUL,MAD,DIV>Default 1,1,4,4,32
-ptx_opcode_initiation_fp            1,2,1,1,4 # Opcode initiation intervals for single precision floating points <ADD,MAX,MUL,MAD,DIV>Default 1,1,1,1,5
-ptx_opcode_initiation_dp         8,16,8,8,130 # Opcode initiation intervals for double precision floating points <ADD,MAX,MUL,MAD,DIV>Default 8,8,8,8,130
DRAM Timing Options:
nbk                                    16 # number of banks
CCD                                     2 # column to column delay
RRD                                     6 # minimal delay between activation of rows in different banks
RCD                                    12 # row to column delay
RAS                                    28 # time needed to activate row
RP                                     12 # time needed to precharge (deactivate) row
RC                                     40 # row cycle time
CDLR                                    5 # switching from write to read (changes tWTR)
WR                                     12 # last data-in to row precharge
CL                                     12 # CAS latency
WL                                      4 # Write latency
nbkgrp                                  4 # number of bank groups
CCDL                                    3 # column to column delay between accesses to different bank groups
RTPL                                    2 # read to precharge delay between accesses to different bank groups
Total number of memory sub partition = 12
addr_dec_mask[CHIP]  = 0000000000000000 	high:64 low:0
addr_dec_mask[BK]    = 000000000000e100 	high:16 low:8
addr_dec_mask[ROW]   = 000000000fff0000 	high:28 low:16
addr_dec_mask[COL]   = 0000000000001eff 	high:13 low:0
addr_dec_mask[BURST] = 000000000000003f 	high:6 low:0
sub_partition_id_mask = 0000000000000100
GPGPU-Sim uArch: clock freqs: 700000000.000000:700000000.000000:700000000.000000:924000000.000000
GPGPU-Sim uArch: clock periods: 0.00000000142857142857:0.00000000142857142857:0.00000000142857142857:0.00000000108225108225
*** Initializing Memory Statistics ***
GPGPU-Sim uArch: interconnect node map (shaderID+MemID to icntID)
GPGPU-Sim uArch: Memory nodes ID start from index: 15
GPGPU-Sim uArch:    0   1   2   3   4
GPGPU-Sim uArch:    5   6   7   8   9
GPGPU-Sim uArch:   10  11  12  13  14
GPGPU-Sim uArch:   15  16  17  18  19
GPGPU-Sim uArch:   20  21  22  23  24
GPGPU-Sim uArch:   25  26
GPGPU-Sim uArch: interconnect node reverse map (icntID to shaderID+MemID)
GPGPU-Sim uArch: Memory nodes start from ID: 15
GPGPU-Sim uArch:    0   1   2   3   4
GPGPU-Sim uArch:    5   6   7   8   9
GPGPU-Sim uArch:   10  11  12  13  14
GPGPU-Sim uArch:   15  16  17  18  19
GPGPU-Sim uArch:   20  21  22  23  24
GPGPU-Sim uArch:   25  26
1223ec15a4c5e1558486653308e61e46  /home/min/a/gupta286/ece695_ftc/gpgpusim-workloads/matrixMulOpt/a.out
GPGPU-Sim uArch: performance model initialization complete.
GPGPU-Sim PTX: __cudaRegisterFatBinary, fat_cubin_handle = 1, filename=matrixMul8.cu
self exe links to: /home/min/a/gupta286/ece695_ftc/gpgpusim-workloads/matrixMulOpt/a.out
Running md5sum using "md5sum /home/min/a/gupta286/ece695_ftc/gpgpusim-workloads/matrixMulOpt/a.out "
Running cuobjdump using "$CUDA_INSTALL_PATH/bin/cuobjdump -ptx -elf -sass /home/min/a/gupta286/ece695_ftc/gpgpusim-workloads/matrixMulOpt/a.out > _cuobjdump_complete_output_kmAtpy"
Parsing file _cuobjdump_complete_output_kmAtpy
######### cuobjdump parser ########
## Adding new section ELF
Adding arch: sm_20
Adding identifier: matrixMul8.cu
## Adding new section PTX
Adding ptx filename: _cuobjdump_1.ptx
Adding arch: sm_20
Adding identifier: matrixMul8.cu
Done parsing!!!
GPGPU-Sim PTX: __cudaRegisterFunction _Z12matrixMulGPUPaS_S_i : hostFun 0x0x4011c7, fat_cubin_handle = 1
DEBUG File name parsing 2 = test.ptx
GPGPU-Sim PTX: overriding embedded ptx with 'test.ptx' (PTX_SIM_USE_PTX_FILE is set)
GPGPU-Sim PTX: allocating shared region for "__cuda_local_var_16200_41_non_const_As" from 0x0 to 0x100 (shared memory space)
GPGPU-Sim PTX: allocating shared region for "__cuda_local_var_16204_41_non_const_Bs" from 0x100 to 0x200 (shared memory space)
GPGPU-Sim PTX: instruction assembly for function '_Z12matrixMulGPUPaS_S_i'...   done.
GPGPU-Sim PTX: finding reconvergence points for '_Z12matrixMulGPUPaS_S_i'...
GPGPU-Sim PTX: Finding dominators for '_Z12matrixMulGPUPaS_S_i'...
GPGPU-Sim PTX: Finding immediate dominators for '_Z12matrixMulGPUPaS_S_i'...
GPGPU-Sim PTX: Finding postdominators for '_Z12matrixMulGPUPaS_S_i'...
GPGPU-Sim PTX: Finding immediate postdominators for '_Z12matrixMulGPUPaS_S_i'...
GPGPU-Sim PTX: pre-decoding instructions for '_Z12matrixMulGPUPaS_S_i'...
GPGPU-Sim PTX: reconvergence points for _Z12matrixMulGPUPaS_S_i...
GPGPU-Sim PTX:  1 (potential) branch divergence @  PC=0x078 (_1.ptx:53) @%p1 bra BB0_3;
GPGPU-Sim PTX:    immediate post dominator      @  PC=0x308 (_1.ptx:168) mov.u32 %r68, %ctaid.y;
GPGPU-Sim PTX:  2 (potential) branch divergence @  PC=0x2f0 (_1.ptx:160) @%p2 bra BB0_2;
GPGPU-Sim PTX:    immediate post dominator      @  PC=0x2f8 (_1.ptx:161) bra.uni BB0_4;
GPGPU-Sim PTX:  3 (potential) branch divergence @  PC=0x2f8 (_1.ptx:161) bra.uni BB0_4;
GPGPU-Sim PTX:    immediate post dominator      @  PC=0x308 (_1.ptx:168) mov.u32 %r68, %ctaid.y;
GPGPU-Sim PTX: ... end of reconvergence points for _Z12matrixMulGPUPaS_S_i
GPGPU-Sim PTX: ... done pre-decoding instructions for '_Z12matrixMulGPUPaS_S_i'.
GPGPU-Sim PTX: finished parsing EMBEDDED .ptx file _1.ptx
Adding _cuobjdump_1.ptx with cubin handle 1
GPGPU-Sim PTX: extracting embedded .ptx to temporary file "_ptx_U7i4vp"
Running: cat _ptx_U7i4vp | sed 's/.version 1.5/.version 1.4/' | sed '/addk_k/d' | sed 's/_quadi//' | sed 's/, texmode_independent//' | sed 's/\(\.extern \.const\[1\] .b8 \w\+\)\[\]/\1\[1\]/' | sed 's/const\[.\]/const\[0\]/g' > _ptx2_EsRlGg
GPGPU-Sim PTX: generating ptxinfo using "$CUDA_INSTALL_PATH/bin/ptxas --gpu-name=sm_20 -v _ptx2_EsRlGg --output-file  /dev/null 2> _ptx_U7i4vpinfo"
GPGPU-Sim PTX: Kernel '_Z12matrixMulGPUPaS_S_i' : regs=15, lmem=0, smem=512, cmem=60
GPGPU-Sim PTX: removing ptxinfo using "rm -f _ptx_U7i4vp _ptx2_EsRlGg _ptx_U7i4vpinfo"
GPGPU-Sim PTX: loading globals with explicit initializers... 
GPGPU-Sim PTX: finished loading globals (0 bytes total).
GPGPU-Sim PTX: loading constants with explicit initializers...  done.

GPGPU-Sim PTX: cudaLaunch for 0x0x4011c7 (mode=performance simulation) on stream 0
GPGPU-Sim PTX: pushing kernel '_Z12matrixMulGPUPaS_S_i' to stream 0, gridDim= (32,32,1) blockDim = (16,16,1) 
kernel '_Z12matrixMulGPUPaS_S_i' transfer to GPU hardware scheduler
GPGPU-Sim uArch: Shader 1 bind to kernel 1 '_Z12matrixMulGPUPaS_S_i'
GPGPU-Sim uArch: CTA/core = 6, limited by: threads
GPGPU-Sim uArch: core:  1, cta: 0 initialized @(1,0)
GPGPU-Sim uArch: Shader 2 bind to kernel 1 '_Z12matrixMulGPUPaS_S_i'
GPGPU-Sim uArch: core:  2, cta: 0 initialized @(1,0)
GPGPU-Sim uArch: Shader 3 bind to kernel 1 '_Z12matrixMulGPUPaS_S_i'
GPGPU-Sim uArch: core:  3, cta: 0 initialized @(1,0)
GPGPU-Sim uArch: Shader 4 bind to kernel 1 '_Z12matrixMulGPUPaS_S_i'
GPGPU-Sim uArch: core:  4, cta: 0 initialized @(1,0)
GPGPU-Sim uArch: Shader 5 bind to kernel 1 '_Z12matrixMulGPUPaS_S_i'
GPGPU-Sim uArch: core:  5, cta: 0 initialized @(1,0)
GPGPU-Sim uArch: Shader 6 bind to kernel 1 '_Z12matrixMulGPUPaS_S_i'
GPGPU-Sim uArch: core:  6, cta: 0 initialized @(1,0)
GPGPU-Sim uArch: Shader 7 bind to kernel 1 '_Z12matrixMulGPUPaS_S_i'
GPGPU-Sim uArch: core:  7, cta: 0 initialized @(1,0)
GPGPU-Sim uArch: Shader 8 bind to kernel 1 '_Z12matrixMulGPUPaS_S_i'
GPGPU-Sim uArch: core:  8, cta: 0 initialized @(1,0)
GPGPU-Sim uArch: Shader 9 bind to kernel 1 '_Z12matrixMulGPUPaS_S_i'
GPGPU-Sim uArch: core:  9, cta: 0 initialized @(1,0)
GPGPU-Sim uArch: Shader 10 bind to kernel 1 '_Z12matrixMulGPUPaS_S_i'
GPGPU-Sim uArch: core: 10, cta: 0 initialized @(1,0)
GPGPU-Sim uArch: Shader 11 bind to kernel 1 '_Z12matrixMulGPUPaS_S_i'
GPGPU-Sim uArch: core: 11, cta: 0 initialized @(1,0)
GPGPU-Sim uArch: Shader 12 bind to kernel 1 '_Z12matrixMulGPUPaS_S_i'
GPGPU-Sim uArch: core: 12, cta: 0 initialized @(1,0)
GPGPU-Sim uArch: Shader 13 bind to kernel 1 '_Z12matrixMulGPUPaS_S_i'
GPGPU-Sim uArch: core: 13, cta: 0 initialized @(1,0)
GPGPU-Sim uArch: Shader 14 bind to kernel 1 '_Z12matrixMulGPUPaS_S_i'
GPGPU-Sim uArch: core: 14, cta: 0 initialized @(1,0)
GPGPU-Sim uArch: Shader 0 bind to kernel 1 '_Z12matrixMulGPUPaS_S_i'
GPGPU-Sim uArch: core:  0, cta: 0 initialized @(1,0)
GPGPU-Sim uArch: core:  1, cta: 1 initialized @(2,0)
GPGPU-Sim uArch: core:  2, cta: 1 initialized @(2,0)
GPGPU-Sim uArch: core:  3, cta: 1 initialized @(2,0)
GPGPU-Sim uArch: core:  4, cta: 1 initialized @(2,0)
GPGPU-Sim uArch: core:  5, cta: 1 initialized @(2,0)
GPGPU-Sim uArch: core:  6, cta: 1 initialized @(2,0)
GPGPU-Sim uArch: core:  7, cta: 1 initialized @(2,0)
GPGPU-Sim uArch: core:  8, cta: 1 initialized @(2,0)
GPGPU-Sim uArch: core:  9, cta: 1 initialized @(2,0)
GPGPU-Sim uArch: core: 10, cta: 1 initialized @(2,0)
GPGPU-Sim uArch: core: 11, cta: 1 initialized @(2,0)
GPGPU-Sim uArch: core: 12, cta: 1 initialized @(2,0)
GPGPU-Sim uArch: core: 13, cta: 1 initialized @(2,0)
GPGPU-Sim uArch: core: 14, cta: 1 initialized @(2,0)
GPGPU-Sim uArch: core:  0, cta: 1 initialized @(2,0)
GPGPU-Sim uArch: core:  1, cta: 2 initialized @(3,0)
GPGPU-Sim uArch: core:  2, cta: 2 initialized @(3,0)
GPGPU-Sim uArch: core:  3, cta: 2 initialized @(3,0)
GPGPU-Sim uArch: core:  4, cta: 2 initialized @(3,0)
GPGPU-Sim uArch: core:  5, cta: 2 initialized @(3,0)
GPGPU-Sim uArch: core:  6, cta: 2 initialized @(3,0)
GPGPU-Sim uArch: core:  7, cta: 2 initialized @(3,0)
GPGPU-Sim uArch: core:  8, cta: 2 initialized @(3,0)
GPGPU-Sim uArch: core:  9, cta: 2 initialized @(3,0)
GPGPU-Sim uArch: core: 10, cta: 2 initialized @(3,0)
GPGPU-Sim uArch: core: 11, cta: 2 initialized @(3,0)
GPGPU-Sim uArch: core: 12, cta: 2 initialized @(3,0)
GPGPU-Sim uArch: core: 13, cta: 2 initialized @(3,0)
GPGPU-Sim uArch: core: 14, cta: 2 initialized @(3,0)
GPGPU-Sim uArch: core:  0, cta: 2 initialized @(3,0)
GPGPU-Sim uArch: core:  1, cta: 3 initialized @(4,0)
GPGPU-Sim uArch: core:  2, cta: 3 initialized @(4,0)
GPGPU-Sim uArch: core:  3, cta: 3 initialized @(4,0)
GPGPU-Sim uArch: core:  4, cta: 3 initialized @(4,0)
GPGPU-Sim uArch: core:  5, cta: 3 initialized @(4,0)
GPGPU-Sim uArch: core:  6, cta: 3 initialized @(4,0)
GPGPU-Sim uArch: core:  7, cta: 3 initialized @(4,0)
GPGPU-Sim uArch: core:  8, cta: 3 initialized @(4,0)
GPGPU-Sim uArch: core:  9, cta: 3 initialized @(4,0)
GPGPU-Sim uArch: core: 10, cta: 3 initialized @(4,0)
GPGPU-Sim uArch: core: 11, cta: 3 initialized @(4,0)
GPGPU-Sim uArch: core: 12, cta: 3 initialized @(4,0)
GPGPU-Sim uArch: core: 13, cta: 3 initialized @(4,0)
GPGPU-Sim uArch: core: 14, cta: 3 initialized @(4,0)
GPGPU-Sim uArch: core:  0, cta: 3 initialized @(4,0)
GPGPU-Sim uArch: core:  1, cta: 4 initialized @(5,0)
GPGPU-Sim uArch: core:  2, cta: 4 initialized @(5,0)
GPGPU-Sim uArch: core:  3, cta: 4 initialized @(5,0)
GPGPU-Sim uArch: core:  4, cta: 4 initialized @(5,0)
GPGPU-Sim uArch: core:  5, cta: 4 initialized @(5,0)
GPGPU-Sim uArch: core:  6, cta: 4 initialized @(5,0)
GPGPU-Sim uArch: core:  7, cta: 4 initialized @(5,0)
GPGPU-Sim uArch: core:  8, cta: 4 initialized @(5,0)
GPGPU-Sim uArch: core:  9, cta: 4 initialized @(5,0)
GPGPU-Sim uArch: core: 10, cta: 4 initialized @(5,0)
GPGPU-Sim uArch: core: 11, cta: 4 initialized @(5,0)
GPGPU-Sim uArch: core: 12, cta: 4 initialized @(5,0)
GPGPU-Sim uArch: core: 13, cta: 4 initialized @(5,0)
GPGPU-Sim uArch: core: 14, cta: 4 initialized @(5,0)
GPGPU-Sim uArch: core:  0, cta: 4 initialized @(5,0)
GPGPU-Sim uArch: core:  1, cta: 5 initialized @(6,0)
GPGPU-Sim uArch: core:  2, cta: 5 initialized @(6,0)
GPGPU-Sim uArch: core:  3, cta: 5 initialized @(6,0)
GPGPU-Sim uArch: core:  4, cta: 5 initialized @(6,0)
GPGPU-Sim uArch: core:  5, cta: 5 initialized @(6,0)
GPGPU-Sim uArch: core:  6, cta: 5 initialized @(6,0)
GPGPU-Sim uArch: core:  7, cta: 5 initialized @(6,0)
GPGPU-Sim uArch: core:  8, cta: 5 initialized @(6,0)
GPGPU-Sim uArch: core:  9, cta: 5 initialized @(6,0)
GPGPU-Sim uArch: core: 10, cta: 5 initialized @(6,0)
GPGPU-Sim uArch: core: 11, cta: 5 initialized @(6,0)
GPGPU-Sim uArch: core: 12, cta: 5 initialized @(6,0)
GPGPU-Sim uArch: core: 13, cta: 5 initialized @(6,0)
GPGPU-Sim uArch: core: 14, cta: 5 initialized @(6,0)
GPGPU-Sim uArch: core:  0, cta: 5 initialized @(6,0)
GPGPU-Sim uArch: cycles simulated: 500  inst.: 0 (ipc= 0.0) sim_rate=0 (inst/sec) elapsed = 0:0:00:01 / Fri Dec 16 04:17:44 2016
GPGPU-Sim PTX: 100000 instructions simulated : ctaid=(28,0,0) tid=(15,7,0)
GPGPU-Sim PTX: 200000 instructions simulated : ctaid=(20,1,0) tid=(15,3,0)
GPGPU-Sim PTX: 300000 instructions simulated : ctaid=(18,2,0) tid=(15,5,0)
GPGPU-Sim PTX: 400000 instructions simulated : ctaid=(27,1,0) tid=(15,15,0)
GPGPU-Sim PTX: 500000 instructions simulated : ctaid=(2,1,0) tid=(15,1,0)
GPGPU-Sim PTX: 600000 instructions simulated : ctaid=(0,2,0) tid=(15,1,0)
GPGPU-Sim PTX: 700000 instructions simulated : ctaid=(11,2,0) tid=(15,13,0)
GPGPU-Sim PTX: 800000 instructions simulated : ctaid=(22,0,0) tid=(15,1,0)
GPGPU-Sim uArch: cycles simulated: 2000  inst.: 773920 (ipc=387.0) sim_rate=386960 (inst/sec) elapsed = 0:0:00:02 / Fri Dec 16 04:17:46 2016
GPGPU-Sim PTX: 900000 instructions simulated : ctaid=(4,1,0) tid=(15,9,0)
GPGPU-Sim PTX: 1000000 instructions simulated : ctaid=(18,0,0) tid=(15,5,0)
GPGPU-Sim uArch: cycles simulated: 4000  inst.: 980928 (ipc=245.2) sim_rate=326976 (inst/sec) elapsed = 0:0:00:03 / Fri Dec 16 04:17:47 2016
GPGPU-Sim PTX: 1100000 instructions simulated : ctaid=(15,0,0) tid=(15,13,0)
GPGPU-Sim PTX: 1200000 instructions simulated : ctaid=(26,0,0) tid=(15,11,0)
GPGPU-Sim PTX: 1300000 instructions simulated : ctaid=(4,0,0) tid=(15,11,0)
GPGPU-Sim PTX: 1400000 instructions simulated : ctaid=(25,0,0) tid=(15,3,0)
GPGPU-Sim PTX: 1500000 instructions simulated : ctaid=(0,1,0) tid=(15,11,0)
GPGPU-Sim PTX: 1600000 instructions simulated : ctaid=(13,1,0) tid=(15,1,0)
GPGPU-Sim PTX: 1700000 instructions simulated : ctaid=(2,0,0) tid=(15,9,0)
GPGPU-Sim uArch: cycles simulated: 5500  inst.: 1709280 (ipc=310.8) sim_rate=427320 (inst/sec) elapsed = 0:0:00:04 / Fri Dec 16 04:17:48 2016
GPGPU-Sim PTX: 1800000 instructions simulated : ctaid=(23,0,0) tid=(15,1,0)
GPGPU-Sim PTX: 1900000 instructions simulated : ctaid=(22,0,0) tid=(15,5,0)
GPGPU-Sim PTX: 2000000 instructions simulated : ctaid=(14,0,0) tid=(15,15,0)
GPGPU-Sim PTX: 2100000 instructions simulated : ctaid=(15,0,0) tid=(15,15,0)
GPGPU-Sim PTX: 2200000 instructions simulated : ctaid=(4,0,0) tid=(15,1,0)
GPGPU-Sim PTX: 2300000 instructions simulated : ctaid=(12,0,0) tid=(15,5,0)
GPGPU-Sim PTX: 2400000 instructions simulated : ctaid=(2,1,0) tid=(15,5,0)
GPGPU-Sim PTX: 2500000 instructions simulated : ctaid=(1,0,0) tid=(15,11,0)
GPGPU-Sim uArch: cycles simulated: 7000  inst.: 2489344 (ipc=355.6) sim_rate=497868 (inst/sec) elapsed = 0:0:00:05 / Fri Dec 16 04:17:49 2016
GPGPU-Sim PTX: 2600000 instructions simulated : ctaid=(11,0,0) tid=(15,9,0)
GPGPU-Sim PTX: 2700000 instructions simulated : ctaid=(0,0,0) tid=(15,3,0)
GPGPU-Sim PTX: 2800000 instructions simulated : ctaid=(24,0,0) tid=(15,11,0)
GPGPU-Sim PTX: 2900000 instructions simulated : ctaid=(26,0,0) tid=(15,3,0)
GPGPU-Sim PTX: 3000000 instructions simulated : ctaid=(14,0,0) tid=(15,7,0)
GPGPU-Sim PTX: 3100000 instructions simulated : ctaid=(15,1,0) tid=(15,7,0)
GPGPU-Sim PTX: 3200000 instructions simulated : ctaid=(18,0,0) tid=(15,11,0)
GPGPU-Sim PTX: 3300000 instructions simulated : ctaid=(29,0,0) tid=(15,5,0)
GPGPU-Sim PTX: 3400000 instructions simulated : ctaid=(24,1,0) tid=(15,7,0)
GPGPU-Sim PTX: 3500000 instructions simulated : ctaid=(12,0,0) tid=(15,13,0)
GPGPU-Sim uArch: cycles simulated: 9000  inst.: 3527424 (ipc=391.9) sim_rate=587904 (inst/sec) elapsed = 0:0:00:06 / Fri Dec 16 04:17:50 2016
GPGPU-Sim PTX: 3600000 instructions simulated : ctaid=(13,0,0) tid=(15,15,0)
GPGPU-Sim PTX: 3700000 instructions simulated : ctaid=(2,0,0) tid=(15,15,0)
GPGPU-Sim PTX: 3800000 instructions simulated : ctaid=(22,0,0) tid=(15,1,0)
GPGPU-Sim PTX: 3900000 instructions simulated : ctaid=(10,0,0) tid=(15,11,0)
GPGPU-Sim PTX: 4000000 instructions simulated : ctaid=(12,0,0) tid=(15,15,0)
GPGPU-Sim PTX: 4100000 instructions simulated : ctaid=(8,0,0) tid=(15,7,0)
GPGPU-Sim PTX: 4200000 instructions simulated : ctaid=(2,1,0) tid=(15,1,0)
GPGPU-Sim PTX: 4300000 instructions simulated : ctaid=(10,0,0) tid=(15,15,0)
GPGPU-Sim uArch: cycles simulated: 10500  inst.: 4303616 (ipc=409.9) sim_rate=614802 (inst/sec) elapsed = 0:0:00:07 / Fri Dec 16 04:17:51 2016
GPGPU-Sim PTX: 4400000 instructions simulated : ctaid=(11,1,0) tid=(15,7,0)
GPGPU-Sim PTX: 4500000 instructions simulated : ctaid=(8,1,0) tid=(15,1,0)
GPGPU-Sim PTX: 4600000 instructions simulated : ctaid=(4,0,0) tid=(15,15,0)
GPGPU-Sim PTX: 4700000 instructions simulated : ctaid=(26,1,0) tid=(15,7,0)
GPGPU-Sim PTX: 4800000 instructions simulated : ctaid=(9,0,0) tid=(15,1,0)
GPGPU-Sim PTX: 4900000 instructions simulated : ctaid=(28,0,0) tid=(15,13,0)
GPGPU-Sim PTX: 5000000 instructions simulated : ctaid=(7,0,0) tid=(15,1,0)
GPGPU-Sim PTX: 5100000 instructions simulated : ctaid=(15,0,0) tid=(15,11,0)
GPGPU-Sim uArch: cycles simulated: 12000  inst.: 5075520 (ipc=423.0) sim_rate=634440 (inst/sec) elapsed = 0:0:00:08 / Fri Dec 16 04:17:52 2016
GPGPU-Sim PTX: 5200000 instructions simulated : ctaid=(2,0,0) tid=(15,9,0)
GPGPU-Sim PTX: 5300000 instructions simulated : ctaid=(9,0,0) tid=(15,5,0)
GPGPU-Sim PTX: 5400000 instructions simulated : ctaid=(11,0,0) tid=(15,1,0)
GPGPU-Sim PTX: 5500000 instructions simulated : ctaid=(7,0,0) tid=(15,11,0)
GPGPU-Sim PTX: 5600000 instructions simulated : ctaid=(10,0,0) tid=(15,11,0)
GPGPU-Sim PTX: 5700000 instructions simulated : ctaid=(24,0,0) tid=(15,13,0)
GPGPU-Sim PTX: 5800000 instructions simulated : ctaid=(3,0,0) tid=(15,11,0)
GPGPU-Sim uArch: cycles simulated: 13500  inst.: 5847040 (ipc=433.1) sim_rate=649671 (inst/sec) elapsed = 0:0:00:09 / Fri Dec 16 04:17:53 2016
GPGPU-Sim PTX: 5900000 instructions simulated : ctaid=(2,0,0) tid=(15,1,0)
GPGPU-Sim PTX: 6000000 instructions simulated : ctaid=(13,0,0) tid=(15,15,0)
GPGPU-Sim PTX: 6100000 instructions simulated : ctaid=(11,0,0) tid=(15,7,0)
GPGPU-Sim PTX: 6200000 instructions simulated : ctaid=(9,1,0) tid=(15,1,0)
GPGPU-Sim PTX: 6300000 instructions simulated : ctaid=(14,0,0) tid=(15,11,0)
GPGPU-Sim PTX: 6400000 instructions simulated : ctaid=(0,0,0) tid=(15,13,0)
GPGPU-Sim PTX: 6500000 instructions simulated : ctaid=(13,0,0) tid=(15,7,0)
GPGPU-Sim PTX: 6600000 instructions simulated : ctaid=(10,0,0) tid=(15,3,0)
GPGPU-Sim uArch: cycles simulated: 15000  inst.: 6629952 (ipc=442.0) sim_rate=662995 (inst/sec) elapsed = 0:0:00:10 / Fri Dec 16 04:17:54 2016
GPGPU-Sim PTX: 6700000 instructions simulated : ctaid=(1,0,0) tid=(15,15,0)
GPGPU-Sim PTX: 6800000 instructions simulated : ctaid=(13,0,0) tid=(15,11,0)
GPGPU-Sim PTX: 6900000 instructions simulated : ctaid=(5,0,0) tid=(15,3,0)
GPGPU-Sim PTX: 7000000 instructions simulated : ctaid=(5,0,0) tid=(15,3,0)
GPGPU-Sim PTX: 7100000 instructions simulated : ctaid=(9,1,0) tid=(15,11,0)
GPGPU-Sim PTX: 7200000 instructions simulated : ctaid=(12,0,0) tid=(15,3,0)
GPGPU-Sim PTX: 7300000 instructions simulated : ctaid=(3,0,0) tid=(15,5,0)
GPGPU-Sim PTX: 7400000 instructions simulated : ctaid=(3,1,0) tid=(15,15,0)
GPGPU-Sim uArch: cycles simulated: 16500  inst.: 7418016 (ipc=449.6) sim_rate=674365 (inst/sec) elapsed = 0:0:00:11 / Fri Dec 16 04:17:55 2016
GPGPU-Sim PTX: 7500000 instructions simulated : ctaid=(28,0,0) tid=(15,3,0)
GPGPU-Sim PTX: 7600000 instructions simulated : ctaid=(10,0,0) tid=(15,11,0)
GPGPU-Sim PTX: 7700000 instructions simulated : ctaid=(22,0,0) tid=(15,3,0)
GPGPU-Sim PTX: 7800000 instructions simulated : ctaid=(17,0,0) tid=(15,13,0)
GPGPU-Sim PTX: 7900000 instructions simulated : ctaid=(8,0,0) tid=(15,13,0)
GPGPU-Sim PTX: 8000000 instructions simulated : ctaid=(21,0,0) tid=(15,11,0)
GPGPU-Sim PTX: 8100000 instructions simulated : ctaid=(8,0,0) tid=(15,5,0)
GPGPU-Sim PTX: 8200000 instructions simulated : ctaid=(19,1,0) tid=(15,15,0)
GPGPU-Sim uArch: cycles simulated: 18000  inst.: 8184160 (ipc=454.7) sim_rate=682013 (inst/sec) elapsed = 0:0:00:12 / Fri Dec 16 04:17:56 2016
GPGPU-Sim PTX: 8300000 instructions simulated : ctaid=(28,0,0) tid=(15,9,0)
GPGPU-Sim PTX: 8400000 instructions simulated : ctaid=(20,0,0) tid=(15,15,0)
GPGPU-Sim PTX: 8500000 instructions simulated : ctaid=(27,0,0) tid=(15,7,0)
GPGPU-Sim PTX: 8600000 instructions simulated : ctaid=(26,0,0) tid=(15,5,0)
GPGPU-Sim PTX: 8700000 instructions simulated : ctaid=(28,0,0) tid=(15,7,0)
GPGPU-Sim PTX: 8800000 instructions simulated : ctaid=(11,0,0) tid=(15,5,0)
GPGPU-Sim PTX: 8900000 instructions simulated : ctaid=(11,0,0) tid=(15,3,0)
GPGPU-Sim uArch: cycles simulated: 19500  inst.: 8940640 (ipc=458.5) sim_rate=687741 (inst/sec) elapsed = 0:0:00:13 / Fri Dec 16 04:17:57 2016
GPGPU-Sim PTX: 9000000 instructions simulated : ctaid=(17,0,0) tid=(15,7,0)
GPGPU-Sim PTX: 9100000 instructions simulated : ctaid=(23,0,0) tid=(15,9,0)
GPGPU-Sim PTX: 9200000 instructions simulated : ctaid=(5,0,0) tid=(15,13,0)
GPGPU-Sim PTX: 9300000 instructions simulated : ctaid=(0,1,0) tid=(15,3,0)
GPGPU-Sim PTX: 9400000 instructions simulated : ctaid=(11,0,0) tid=(15,7,0)
GPGPU-Sim PTX: 9500000 instructions simulated : ctaid=(10,0,0) tid=(15,5,0)
GPGPU-Sim PTX: 9600000 instructions simulated : ctaid=(18,0,0) tid=(15,1,0)
GPGPU-Sim PTX: 9700000 instructions simulated : ctaid=(13,0,0) tid=(15,5,0)
GPGPU-Sim uArch: cycles simulated: 21000  inst.: 9706656 (ipc=462.2) sim_rate=693332 (inst/sec) elapsed = 0:0:00:14 / Fri Dec 16 04:17:58 2016
GPGPU-Sim PTX: 9800000 instructions simulated : ctaid=(8,0,0) tid=(15,11,0)
GPGPU-Sim PTX: 9900000 instructions simulated : ctaid=(9,0,0) tid=(15,7,0)
GPGPU-Sim PTX: 10000000 instructions simulated : ctaid=(16,0,0) tid=(15,9,0)
GPGPU-Sim PTX: 10100000 instructions simulated : ctaid=(11,0,0) tid=(15,11,0)
GPGPU-Sim PTX: 10200000 instructions simulated : ctaid=(3,0,0) tid=(15,11,0)
GPGPU-Sim PTX: 10300000 instructions simulated : ctaid=(19,0,0) tid=(15,9,0)
GPGPU-Sim PTX: 10400000 instructions simulated : ctaid=(19,0,0) tid=(15,3,0)
GPGPU-Sim PTX: 10500000 instructions simulated : ctaid=(14,0,0) tid=(15,3,0)
GPGPU-Sim uArch: cycles simulated: 22500  inst.: 10476544 (ipc=465.6) sim_rate=698436 (inst/sec) elapsed = 0:0:00:15 / Fri Dec 16 04:17:59 2016
GPGPU-Sim PTX: 10600000 instructions simulated : ctaid=(12,0,0) tid=(15,7,0)
GPGPU-Sim PTX: 10700000 instructions simulated : ctaid=(10,0,0) tid=(15,5,0)
GPGPU-Sim PTX: 10800000 instructions simulated : ctaid=(26,0,0) tid=(15,5,0)
GPGPU-Sim PTX: 10900000 instructions simulated : ctaid=(23,0,0) tid=(15,15,0)
GPGPU-Sim PTX: 11000000 instructions simulated : ctaid=(0,1,0) tid=(15,7,0)
GPGPU-Sim PTX: 11100000 instructions simulated : ctaid=(3,0,0) tid=(15,3,0)
GPGPU-Sim PTX: 11200000 instructions simulated : ctaid=(30,0,0) tid=(15,3,0)
GPGPU-Sim uArch: cycles simulated: 24000  inst.: 11240320 (ipc=468.3) sim_rate=702520 (inst/sec) elapsed = 0:0:00:16 / Fri Dec 16 04:18:00 2016
GPGPU-Sim PTX: 11300000 instructions simulated : ctaid=(10,0,0) tid=(15,7,0)
GPGPU-Sim PTX: 11400000 instructions simulated : ctaid=(26,0,0) tid=(15,5,0)
GPGPU-Sim PTX: 11500000 instructions simulated : ctaid=(23,0,0) tid=(15,3,0)
GPGPU-Sim PTX: 11600000 instructions simulated : ctaid=(16,1,0) tid=(15,9,0)
GPGPU-Sim PTX: 11700000 instructions simulated : ctaid=(9,0,0) tid=(15,15,0)
GPGPU-Sim PTX: 11800000 instructions simulated : ctaid=(10,2,0) tid=(15,11,0)
GPGPU-Sim PTX: 11900000 instructions simulated : ctaid=(3,0,0) tid=(15,5,0)
GPGPU-Sim PTX: 12000000 instructions simulated : ctaid=(21,0,0) tid=(15,5,0)
GPGPU-Sim uArch: cycles simulated: 25500  inst.: 11986208 (ipc=470.0) sim_rate=705071 (inst/sec) elapsed = 0:0:00:17 / Fri Dec 16 04:18:01 2016
GPGPU-Sim PTX: 12100000 instructions simulated : ctaid=(21,0,0) tid=(15,7,0)
GPGPU-Sim PTX: 12200000 instructions simulated : ctaid=(9,0,0) tid=(15,1,0)
GPGPU-Sim PTX: 12300000 instructions simulated : ctaid=(20,0,0) tid=(15,9,0)
GPGPU-Sim PTX: 12400000 instructions simulated : ctaid=(30,0,0) tid=(15,11,0)
GPGPU-Sim PTX: 12500000 instructions simulated : ctaid=(2,0,0) tid=(15,1,0)
GPGPU-Sim PTX: 12600000 instructions simulated : ctaid=(23,0,0) tid=(15,7,0)
GPGPU-Sim PTX: 12700000 instructions simulated : ctaid=(10,0,0) tid=(15,13,0)
GPGPU-Sim uArch: cycles simulated: 27000  inst.: 12755200 (ipc=472.4) sim_rate=708622 (inst/sec) elapsed = 0:0:00:18 / Fri Dec 16 04:18:02 2016
GPGPU-Sim PTX: 12800000 instructions simulated : ctaid=(24,0,0) tid=(15,11,0)
GPGPU-Sim PTX: 12900000 instructions simulated : ctaid=(22,0,0) tid=(15,11,0)
GPGPU-Sim PTX: 13000000 instructions simulated : ctaid=(20,0,0) tid=(15,15,0)
GPGPU-Sim PTX: 13100000 instructions simulated : ctaid=(10,0,0) tid=(15,9,0)
GPGPU-Sim PTX: 13200000 instructions simulated : ctaid=(10,0,0) tid=(15,13,0)
GPGPU-Sim PTX: 13300000 instructions simulated : ctaid=(6,0,0) tid=(15,1,0)
GPGPU-Sim PTX: 13400000 instructions simulated : ctaid=(3,0,0) tid=(15,1,0)
GPGPU-Sim PTX: 13500000 instructions simulated : ctaid=(3,1,0) tid=(15,5,0)
GPGPU-Sim PTX: 13600000 instructions simulated : ctaid=(9,0,0) tid=(15,5,0)
GPGPU-Sim PTX: 13700000 instructions simulated : ctaid=(13,0,0) tid=(15,15,0)
GPGPU-Sim PTX: 13800000 instructions simulated : ctaid=(6,0,0) tid=(15,11,0)
GPGPU-Sim uArch: cycles simulated: 29000  inst.: 13792224 (ipc=475.6) sim_rate=725906 (inst/sec) elapsed = 0:0:00:19 / Fri Dec 16 04:18:03 2016
GPGPU-Sim PTX: 13900000 instructions simulated : ctaid=(28,0,0) tid=(15,1,0)
GPGPU-Sim PTX: 14000000 instructions simulated : ctaid=(9,1,0) tid=(15,7,0)
GPGPU-Sim PTX: 14100000 instructions simulated : ctaid=(29,0,0) tid=(15,3,0)
GPGPU-Sim PTX: 14200000 instructions simulated : ctaid=(28,0,0) tid=(15,3,0)
GPGPU-Sim PTX: 14300000 instructions simulated : ctaid=(25,1,0) tid=(15,15,0)
GPGPU-Sim PTX: 14400000 instructions simulated : ctaid=(13,0,0) tid=(15,7,0)
GPGPU-Sim PTX: 14500000 instructions simulated : ctaid=(23,0,0) tid=(15,9,0)
GPGPU-Sim PTX: 14600000 instructions simulated : ctaid=(12,0,0) tid=(15,13,0)
GPGPU-Sim uArch: cycles simulated: 30500  inst.: 14571328 (ipc=477.7) sim_rate=728566 (inst/sec) elapsed = 0:0:00:20 / Fri Dec 16 04:18:04 2016
GPGPU-Sim PTX: 14700000 instructions simulated : ctaid=(19,0,0) tid=(15,7,0)
GPGPU-Sim uArch: Shader 8 finished CTA #0 (30846,0), 5 CTAs running
GPGPU-Sim uArch: core:  8, cta: 0 initialized @(30847,0)
GPGPU-Sim PTX: 14800000 instructions simulated : ctaid=(8,0,0) tid=(15,13,0)
GPGPU-Sim uArch: Shader 3 finished CTA #0 (30953,0), 5 CTAs running
GPGPU-Sim uArch: core:  3, cta: 0 initialized @(30954,0)
GPGPU-Sim uArch: Shader 12 finished CTA #0 (30956,0), 5 CTAs running
GPGPU-Sim uArch: core: 12, cta: 0 initialized @(30957,0)
GPGPU-Sim uArch: Shader 4 finished CTA #0 (31065,0), 5 CTAs running
GPGPU-Sim uArch: core:  4, cta: 0 initialized @(31066,0)
GPGPU-Sim PTX: 14900000 instructions simulated : ctaid=(30,0,0) tid=(15,1,0)
GPGPU-Sim PTX: 15000000 instructions simulated : ctaid=(18,0,0) tid=(15,5,0)
GPGPU-Sim PTX: 15100000 instructions simulated : ctaid=(28,0,0) tid=(15,1,0)
GPGPU-Sim uArch: cycles simulated: 31500  inst.: 15100192 (ipc=479.4) sim_rate=719056 (inst/sec) elapsed = 0:0:00:21 / Fri Dec 16 04:18:05 2016
GPGPU-Sim uArch: Shader 0 finished CTA #0 (31545,0), 5 CTAs running
GPGPU-Sim uArch: core:  0, cta: 0 initialized @(31546,0)
GPGPU-Sim PTX: 15200000 instructions simulated : ctaid=(18,0,0) tid=(15,15,0)
GPGPU-Sim PTX: 15300000 instructions simulated : ctaid=(4,0,0) tid=(15,1,0)
GPGPU-Sim uArch: Shader 14 finished CTA #0 (31885,0), 5 CTAs running
GPGPU-Sim uArch: core: 14, cta: 0 initialized @(31886,0)
GPGPU-Sim uArch: Shader 7 finished CTA #0 (31962,0), 5 CTAs running
GPGPU-Sim uArch: core:  7, cta: 0 initialized @(31963,0)
GPGPU-Sim PTX: 15400000 instructions simulated : ctaid=(21,2,0) tid=(15,3,0)
GPGPU-Sim PTX: 15500000 instructions simulated : ctaid=(20,0,0) tid=(15,1,0)
GPGPU-Sim uArch: Shader 2 finished CTA #0 (32168,0), 5 CTAs running
GPGPU-Sim uArch: core:  2, cta: 0 initialized @(32169,0)
GPGPU-Sim uArch: Shader 10 finished CTA #0 (32208,0), 5 CTAs running
GPGPU-Sim uArch: core: 10, cta: 0 initialized @(32209,0)
GPGPU-Sim uArch: Shader 11 finished CTA #0 (32284,0), 5 CTAs running
GPGPU-Sim uArch: core: 11, cta: 0 initialized @(32285,0)
GPGPU-Sim PTX: 15600000 instructions simulated : ctaid=(15,0,0) tid=(15,15,0)
GPGPU-Sim PTX: 15700000 instructions simulated : ctaid=(20,1,0) tid=(15,11,0)
GPGPU-Sim uArch: Shader 6 finished CTA #0 (32618,0), 5 CTAs running
GPGPU-Sim uArch: core:  6, cta: 0 initialized @(32619,0)
GPGPU-Sim PTX: 15800000 instructions simulated : ctaid=(18,0,0) tid=(15,7,0)
GPGPU-Sim PTX: 15900000 instructions simulated : ctaid=(23,0,0) tid=(15,5,0)
GPGPU-Sim uArch: cycles simulated: 33000  inst.: 15920160 (ipc=482.4) sim_rate=723643 (inst/sec) elapsed = 0:0:00:22 / Fri Dec 16 04:18:06 2016
GPGPU-Sim PTX: 16000000 instructions simulated : ctaid=(5,1,0) tid=(15,13,0)
GPGPU-Sim PTX: 16100000 instructions simulated : ctaid=(17,0,0) tid=(15,13,0)
GPGPU-Sim PTX: 16200000 instructions simulated : ctaid=(25,0,0) tid=(15,13,0)
GPGPU-Sim PTX: 16300000 instructions simulated : ctaid=(29,0,0) tid=(15,7,0)
GPGPU-Sim PTX: 16400000 instructions simulated : ctaid=(8,0,0) tid=(15,9,0)
GPGPU-Sim PTX: 16500000 instructions simulated : ctaid=(20,0,0) tid=(15,9,0)
GPGPU-Sim PTX: 16600000 instructions simulated : ctaid=(18,0,0) tid=(15,9,0)
GPGPU-Sim PTX: 16700000 instructions simulated : ctaid=(21,0,0) tid=(15,11,0)
GPGPU-Sim uArch: cycles simulated: 34500  inst.: 16682656 (ipc=483.6) sim_rate=725332 (inst/sec) elapsed = 0:0:00:23 / Fri Dec 16 04:18:07 2016
GPGPU-Sim PTX: 16800000 instructions simulated : ctaid=(26,0,0) tid=(15,9,0)
GPGPU-Sim PTX: 16900000 instructions simulated : ctaid=(16,0,0) tid=(15,7,0)
GPGPU-Sim PTX: 17000000 instructions simulated : ctaid=(5,1,0) tid=(15,9,0)
GPGPU-Sim PTX: 17100000 instructions simulated : ctaid=(17,0,0) tid=(15,15,0)
GPGPU-Sim uArch: Shader 13 finished CTA #0 (35280,0), 5 CTAs running
GPGPU-Sim uArch: core: 13, cta: 0 initialized @(35281,0)
GPGPU-Sim PTX: 17200000 instructions simulated : ctaid=(26,1,0) tid=(15,15,0)
GPGPU-Sim PTX: 17300000 instructions simulated : ctaid=(6,2,0) tid=(15,9,0)
GPGPU-Sim PTX: 17400000 instructions simulated : ctaid=(1,1,0) tid=(15,15,0)
GPGPU-Sim PTX: 17500000 instructions simulated : ctaid=(16,0,0) tid=(15,13,0)
GPGPU-Sim uArch: cycles simulated: 36000  inst.: 17468736 (ipc=485.2) sim_rate=727864 (inst/sec) elapsed = 0:0:00:24 / Fri Dec 16 04:18:08 2016
GPGPU-Sim uArch: Shader 1 finished CTA #0 (36073,0), 5 CTAs running
GPGPU-Sim uArch: core:  1, cta: 0 initialized @(36074,0)
GPGPU-Sim uArch: Shader 9 finished CTA #0 (36150,0), 5 CTAs running
GPGPU-Sim uArch: core:  9, cta: 0 initialized @(36151,0)
GPGPU-Sim PTX: 17600000 instructions simulated : ctaid=(1,1,0) tid=(15,3,0)
GPGPU-Sim PTX: 17700000 instructions simulated : ctaid=(4,0,0) tid=(15,11,0)
GPGPU-Sim PTX: 17800000 instructions simulated : ctaid=(31,0,0) tid=(15,5,0)
GPGPU-Sim PTX: 17900000 instructions simulated : ctaid=(18,0,0) tid=(15,3,0)
GPGPU-Sim PTX: 18000000 instructions simulated : ctaid=(16,1,0) tid=(15,11,0)
GPGPU-Sim PTX: 18100000 instructions simulated : ctaid=(11,1,0) tid=(15,11,0)
GPGPU-Sim uArch: Shader 5 finished CTA #0 (37183,0), 5 CTAs running
GPGPU-Sim uArch: core:  5, cta: 0 initialized @(37184,0)
GPGPU-Sim PTX: 18200000 instructions simulated : ctaid=(21,1,0) tid=(15,11,0)
GPGPU-Sim uArch: cycles simulated: 37500  inst.: 18250272 (ipc=486.7) sim_rate=730010 (inst/sec) elapsed = 0:0:00:25 / Fri Dec 16 04:18:09 2016
GPGPU-Sim PTX: 18300000 instructions simulated : ctaid=(1,1,0) tid=(15,7,0)
GPGPU-Sim PTX: 18400000 instructions simulated : ctaid=(28,0,0) tid=(15,11,0)
GPGPU-Sim PTX: 18500000 instructions simulated : ctaid=(10,1,0) tid=(15,15,0)
GPGPU-Sim PTX: 18600000 instructions simulated : ctaid=(26,0,0) tid=(15,13,0)
GPGPU-Sim PTX: 18700000 instructions simulated : ctaid=(17,0,0) tid=(15,1,0)
GPGPU-Sim PTX: 18800000 instructions simulated : ctaid=(21,0,0) tid=(15,5,0)
GPGPU-Sim PTX: 18900000 instructions simulated : ctaid=(20,0,0) tid=(15,7,0)
GPGPU-Sim PTX: 19000000 instructions simulated : ctaid=(20,1,0) tid=(15,11,0)
GPGPU-Sim uArch: cycles simulated: 39000  inst.: 19032992 (ipc=488.0) sim_rate=732038 (inst/sec) elapsed = 0:0:00:26 / Fri Dec 16 04:18:10 2016
GPGPU-Sim PTX: 19100000 instructions simulated : ctaid=(22,0,0) tid=(15,9,0)
GPGPU-Sim PTX: 19200000 instructions simulated : ctaid=(2,1,0) tid=(15,3,0)
GPGPU-Sim PTX: 19300000 instructions simulated : ctaid=(2,1,0) tid=(15,11,0)
GPGPU-Sim PTX: 19400000 instructions simulated : ctaid=(11,1,0) tid=(15,9,0)
GPGPU-Sim PTX: 19500000 instructions simulated : ctaid=(14,1,0) tid=(15,3,0)
GPGPU-Sim PTX: 19600000 instructions simulated : ctaid=(17,0,0) tid=(15,15,0)
GPGPU-Sim PTX: 19700000 instructions simulated : ctaid=(23,0,0) tid=(15,15,0)
GPGPU-Sim PTX: 19800000 instructions simulated : ctaid=(27,0,0) tid=(15,13,0)
GPGPU-Sim uArch: cycles simulated: 40500  inst.: 19813920 (ipc=489.2) sim_rate=733848 (inst/sec) elapsed = 0:0:00:27 / Fri Dec 16 04:18:11 2016
GPGPU-Sim PTX: 19900000 instructions simulated : ctaid=(16,0,0) tid=(15,3,0)
GPGPU-Sim PTX: 20000000 instructions simulated : ctaid=(28,0,0) tid=(15,5,0)
GPGPU-Sim PTX: 20100000 instructions simulated : ctaid=(27,0,0) tid=(15,3,0)
GPGPU-Sim PTX: 20200000 instructions simulated : ctaid=(27,0,0) tid=(15,7,0)
GPGPU-Sim PTX: 20300000 instructions simulated : ctaid=(1,1,0) tid=(15,7,0)
GPGPU-Sim PTX: 20400000 instructions simulated : ctaid=(25,0,0) tid=(15,5,0)
GPGPU-Sim PTX: 20500000 instructions simulated : ctaid=(1,1,0) tid=(15,7,0)
GPGPU-Sim PTX: 20600000 instructions simulated : ctaid=(22,0,0) tid=(15,13,0)
GPGPU-Sim uArch: cycles simulated: 42000  inst.: 20593120 (ipc=490.3) sim_rate=735468 (inst/sec) elapsed = 0:0:00:28 / Fri Dec 16 04:18:12 2016
GPGPU-Sim PTX: 20700000 instructions simulated : ctaid=(1,2,0) tid=(15,5,0)
GPGPU-Sim PTX: 20800000 instructions simulated : ctaid=(3,1,0) tid=(15,9,0)
GPGPU-Sim PTX: 20900000 instructions simulated : ctaid=(23,0,0) tid=(15,9,0)
GPGPU-Sim PTX: 21000000 instructions simulated : ctaid=(15,0,0) tid=(15,9,0)
GPGPU-Sim uArch: Shader 12 finished CTA #1 (42836,0), 5 CTAs running
GPGPU-Sim uArch: core: 12, cta: 1 initialized @(42837,0)
GPGPU-Sim PTX: 21100000 instructions simulated : ctaid=(21,0,0) tid=(15,3,0)
GPGPU-Sim uArch: Shader 8 finished CTA #1 (43009,0), 5 CTAs running
GPGPU-Sim uArch: core:  8, cta: 1 initialized @(43010,0)
GPGPU-Sim PTX: 21200000 instructions simulated : ctaid=(24,0,0) tid=(15,3,0)
GPGPU-Sim uArch: Shader 3 finished CTA #1 (43245,0), 5 CTAs running
GPGPU-Sim uArch: core:  3, cta: 1 initialized @(43246,0)
GPGPU-Sim PTX: 21300000 instructions simulated : ctaid=(18,0,0) tid=(15,7,0)
GPGPU-Sim uArch: Shader 0 finished CTA #1 (43350,0), 5 CTAs running
GPGPU-Sim uArch: core:  0, cta: 1 initialized @(43351,0)
GPGPU-Sim PTX: 21400000 instructions simulated : ctaid=(4,1,0) tid=(15,9,0)
GPGPU-Sim uArch: cycles simulated: 43500  inst.: 21388320 (ipc=491.7) sim_rate=737528 (inst/sec) elapsed = 0:0:00:29 / Fri Dec 16 04:18:13 2016
GPGPU-Sim PTX: 21500000 instructions simulated : ctaid=(24,0,0) tid=(15,5,0)
GPGPU-Sim uArch: Shader 4 finished CTA #1 (43669,0), 5 CTAs running
GPGPU-Sim uArch: core:  4, cta: 1 initialized @(43670,0)
GPGPU-Sim PTX: 21600000 instructions simulated : ctaid=(2,1,0) tid=(15,9,0)
GPGPU-Sim uArch: Shader 7 finished CTA #1 (43916,0), 5 CTAs running
GPGPU-Sim uArch: core:  7, cta: 1 initialized @(43917,0)
GPGPU-Sim PTX: 21700000 instructions simulated : ctaid=(12,1,0) tid=(15,3,0)
GPGPU-Sim PTX: 21800000 instructions simulated : ctaid=(15,0,0) tid=(15,13,0)
GPGPU-Sim PTX: 21900000 instructions simulated : ctaid=(0,1,0) tid=(15,1,0)
GPGPU-Sim PTX: 22000000 instructions simulated : ctaid=(9,1,0) tid=(15,15,0)
GPGPU-Sim uArch: Shader 11 finished CTA #1 (44597,0), 5 CTAs running
GPGPU-Sim uArch: core: 11, cta: 1 initialized @(44598,0)
GPGPU-Sim PTX: 22100000 instructions simulated : ctaid=(15,3,0) tid=(15,5,0)
GPGPU-Sim uArch: Shader 13 finished CTA #1 (44922,0), 5 CTAs running
GPGPU-Sim uArch: core: 13, cta: 1 initialized @(44923,0)
GPGPU-Sim PTX: 22200000 instructions simulated : ctaid=(19,0,0) tid=(15,9,0)
GPGPU-Sim uArch: Shader 9 finished CTA #1 (44935,0), 5 CTAs running
GPGPU-Sim uArch: core:  9, cta: 1 initialized @(44936,0)
GPGPU-Sim uArch: cycles simulated: 45000  inst.: 22200704 (ipc=493.3) sim_rate=740023 (inst/sec) elapsed = 0:0:00:30 / Fri Dec 16 04:18:14 2016
GPGPU-Sim PTX: 22300000 instructions simulated : ctaid=(21,1,0) tid=(15,11,0)
GPGPU-Sim uArch: Shader 5 finished CTA #1 (45128,0), 5 CTAs running
GPGPU-Sim uArch: core:  5, cta: 1 initialized @(45129,0)
GPGPU-Sim PTX: 22400000 instructions simulated : ctaid=(26,1,0) tid=(15,7,0)
GPGPU-Sim uArch: Shader 2 finished CTA #1 (45410,0), 5 CTAs running
GPGPU-Sim uArch: core:  2, cta: 1 initialized @(45411,0)
GPGPU-Sim PTX: 22500000 instructions simulated : ctaid=(20,0,0) tid=(15,9,0)
GPGPU-Sim PTX: 22600000 instructions simulated : ctaid=(31,0,0) tid=(15,9,0)
GPGPU-Sim uArch: Shader 1 finished CTA #1 (45769,0), 5 CTAs running
GPGPU-Sim uArch: core:  1, cta: 1 initialized @(45770,0)
GPGPU-Sim PTX: 22700000 instructions simulated : ctaid=(3,1,0) tid=(15,3,0)
GPGPU-Sim uArch: cycles simulated: 46000  inst.: 22745216 (ipc=494.5) sim_rate=733716 (inst/sec) elapsed = 0:0:00:31 / Fri Dec 16 04:18:15 2016
GPGPU-Sim PTX: 22800000 instructions simulated : ctaid=(0,1,0) tid=(15,3,0)
GPGPU-Sim PTX: 22900000 instructions simulated : ctaid=(0,1,0) tid=(15,1,0)
GPGPU-Sim PTX: 23000000 instructions simulated : ctaid=(25,1,0) tid=(15,9,0)
GPGPU-Sim PTX: 23100000 instructions simulated : ctaid=(6,1,0) tid=(15,15,0)
GPGPU-Sim PTX: 23200000 instructions simulated : ctaid=(0,2,0) tid=(15,3,0)
GPGPU-Sim PTX: 23300000 instructions simulated : ctaid=(0,3,0) tid=(15,3,0)
GPGPU-Sim PTX: 23400000 instructions simulated : ctaid=(16,1,0) tid=(15,1,0)
GPGPU-Sim PTX: 23500000 instructions simulated : ctaid=(9,1,0) tid=(15,1,0)
GPGPU-Sim uArch: cycles simulated: 47500  inst.: 23523712 (ipc=495.2) sim_rate=735116 (inst/sec) elapsed = 0:0:00:32 / Fri Dec 16 04:18:16 2016
GPGPU-Sim PTX: 23600000 instructions simulated : ctaid=(13,1,0) tid=(15,1,0)
GPGPU-Sim PTX: 23700000 instructions simulated : ctaid=(22,1,0) tid=(15,3,0)
GPGPU-Sim uArch: Shader 10 finished CTA #1 (47807,0), 5 CTAs running
GPGPU-Sim uArch: core: 10, cta: 1 initialized @(47808,0)
GPGPU-Sim PTX: 23800000 instructions simulated : ctaid=(10,2,0) tid=(15,1,0)
GPGPU-Sim PTX: 23900000 instructions simulated : ctaid=(29,1,0) tid=(15,5,0)
GPGPU-Sim PTX: 24000000 instructions simulated : ctaid=(7,1,0) tid=(15,1,0)
GPGPU-Sim PTX: 24100000 instructions simulated : ctaid=(23,1,0) tid=(15,1,0)
GPGPU-Sim uArch: Shader 14 finished CTA #1 (48614,0), 5 CTAs running
GPGPU-Sim uArch: core: 14, cta: 1 initialized @(48615,0)
GPGPU-Sim PTX: 24200000 instructions simulated : ctaid=(22,1,0) tid=(15,3,0)
GPGPU-Sim PTX: 24300000 instructions simulated : ctaid=(8,1,0) tid=(15,1,0)
GPGPU-Sim uArch: cycles simulated: 49000  inst.: 24304384 (ipc=496.0) sim_rate=736496 (inst/sec) elapsed = 0:0:00:33 / Fri Dec 16 04:18:17 2016
GPGPU-Sim PTX: 24400000 instructions simulated : ctaid=(0,1,0) tid=(15,13,0)
GPGPU-Sim PTX: 24500000 instructions simulated : ctaid=(12,1,0) tid=(15,5,0)
GPGPU-Sim PTX: 24600000 instructions simulated : ctaid=(13,1,0) tid=(15,15,0)
GPGPU-Sim PTX: 24700000 instructions simulated : ctaid=(30,0,0) tid=(15,9,0)
GPGPU-Sim PTX: 24800000 instructions simulated : ctaid=(0,1,0) tid=(15,9,0)
GPGPU-Sim PTX: 24900000 instructions simulated : ctaid=(0,1,0) tid=(15,7,0)
GPGPU-Sim PTX: 25000000 instructions simulated : ctaid=(2,2,0) tid=(15,11,0)
GPGPU-Sim PTX: 25100000 instructions simulated : ctaid=(3,1,0) tid=(15,5,0)
GPGPU-Sim uArch: cycles simulated: 50500  inst.: 25086912 (ipc=496.8) sim_rate=737850 (inst/sec) elapsed = 0:0:00:34 / Fri Dec 16 04:18:18 2016
GPGPU-Sim PTX: 25200000 instructions simulated : ctaid=(12,1,0) tid=(15,9,0)
GPGPU-Sim PTX: 25300000 instructions simulated : ctaid=(20,3,0) tid=(15,15,0)
GPGPU-Sim PTX: 25400000 instructions simulated : ctaid=(6,1,0) tid=(15,1,0)
GPGPU-Sim PTX: 25500000 instructions simulated : ctaid=(2,1,0) tid=(15,3,0)
GPGPU-Sim PTX: 25600000 instructions simulated : ctaid=(25,1,0) tid=(15,11,0)
GPGPU-Sim PTX: 25700000 instructions simulated : ctaid=(29,1,0) tid=(15,15,0)
GPGPU-Sim PTX: 25800000 instructions simulated : ctaid=(11,1,0) tid=(15,11,0)
GPGPU-Sim PTX: 25900000 instructions simulated : ctaid=(8,2,0) tid=(15,7,0)
GPGPU-Sim uArch: cycles simulated: 52000  inst.: 25865440 (ipc=497.4) sim_rate=739012 (inst/sec) elapsed = 0:0:00:35 / Fri Dec 16 04:18:19 2016
GPGPU-Sim PTX: 26000000 instructions simulated : ctaid=(22,1,0) tid=(15,9,0)
GPGPU-Sim PTX: 26100000 instructions simulated : ctaid=(11,2,0) tid=(15,13,0)
GPGPU-Sim uArch: Shader 6 finished CTA #1 (52453,0), 5 CTAs running
GPGPU-Sim uArch: core:  6, cta: 1 initialized @(52454,0)
GPGPU-Sim PTX: 26200000 instructions simulated : ctaid=(22,2,0) tid=(15,13,0)
GPGPU-Sim PTX: 26300000 instructions simulated : ctaid=(14,2,0) tid=(15,7,0)
GPGPU-Sim PTX: 26400000 instructions simulated : ctaid=(1,2,0) tid=(15,5,0)
GPGPU-Sim PTX: 26500000 instructions simulated : ctaid=(25,1,0) tid=(15,15,0)
GPGPU-Sim PTX: 26600000 instructions simulated : ctaid=(20,1,0) tid=(15,7,0)
GPGPU-Sim uArch: cycles simulated: 53500  inst.: 26623552 (ipc=497.6) sim_rate=739543 (inst/sec) elapsed = 0:0:00:36 / Fri Dec 16 04:18:20 2016
GPGPU-Sim PTX: 26700000 instructions simulated : ctaid=(7,1,0) tid=(15,3,0)
GPGPU-Sim PTX: 26800000 instructions simulated : ctaid=(21,1,0) tid=(15,1,0)
GPGPU-Sim PTX: 26900000 instructions simulated : ctaid=(3,1,0) tid=(15,9,0)
GPGPU-Sim PTX: 27000000 instructions simulated : ctaid=(4,1,0) tid=(15,15,0)
GPGPU-Sim PTX: 27100000 instructions simulated : ctaid=(12,1,0) tid=(15,9,0)
GPGPU-Sim PTX: 27200000 instructions simulated : ctaid=(16,2,0) tid=(15,11,0)
GPGPU-Sim PTX: 27300000 instructions simulated : ctaid=(30,0,0) tid=(15,7,0)
GPGPU-Sim PTX: 27400000 instructions simulated : ctaid=(6,1,0) tid=(15,13,0)
GPGPU-Sim uArch: cycles simulated: 55000  inst.: 27400576 (ipc=498.2) sim_rate=740556 (inst/sec) elapsed = 0:0:00:37 / Fri Dec 16 04:18:21 2016
GPGPU-Sim PTX: 27500000 instructions simulated : ctaid=(26,1,0) tid=(15,11,0)
GPGPU-Sim PTX: 27600000 instructions simulated : ctaid=(24,1,0) tid=(15,1,0)
GPGPU-Sim PTX: 27700000 instructions simulated : ctaid=(14,2,0) tid=(15,11,0)
GPGPU-Sim PTX: 27800000 instructions simulated : ctaid=(19,1,0) tid=(15,7,0)
GPGPU-Sim PTX: 27900000 instructions simulated : ctaid=(31,0,0) tid=(15,3,0)
GPGPU-Sim PTX: 28000000 instructions simulated : ctaid=(30,0,0) tid=(15,5,0)
GPGPU-Sim PTX: 28100000 instructions simulated : ctaid=(26,1,0) tid=(15,15,0)
GPGPU-Sim PTX: 28200000 instructions simulated : ctaid=(24,1,0) tid=(15,3,0)
GPGPU-Sim uArch: cycles simulated: 56500  inst.: 28178944 (ipc=498.7) sim_rate=741551 (inst/sec) elapsed = 0:0:00:38 / Fri Dec 16 04:18:22 2016
GPGPU-Sim PTX: 28300000 instructions simulated : ctaid=(4,1,0) tid=(15,7,0)
GPGPU-Sim PTX: 28400000 instructions simulated : ctaid=(15,2,0) tid=(15,13,0)
GPGPU-Sim PTX: 28500000 instructions simulated : ctaid=(8,1,0) tid=(15,3,0)
GPGPU-Sim PTX: 28600000 instructions simulated : ctaid=(27,1,0) tid=(15,5,0)
GPGPU-Sim PTX: 28700000 instructions simulated : ctaid=(12,2,0) tid=(15,1,0)
GPGPU-Sim PTX: 28800000 instructions simulated : ctaid=(8,1,0) tid=(15,15,0)
GPGPU-Sim PTX: 28900000 instructions simulated : ctaid=(23,1,0) tid=(15,13,0)
GPGPU-Sim PTX: 29000000 instructions simulated : ctaid=(29,1,0) tid=(15,3,0)
GPGPU-Sim uArch: cycles simulated: 58000  inst.: 28956608 (ipc=499.3) sim_rate=742477 (inst/sec) elapsed = 0:0:00:39 / Fri Dec 16 04:18:23 2016
GPGPU-Sim PTX: 29100000 instructions simulated : ctaid=(8,1,0) tid=(15,1,0)
GPGPU-Sim PTX: 29200000 instructions simulated : ctaid=(7,1,0) tid=(15,11,0)
GPGPU-Sim PTX: 29300000 instructions simulated : ctaid=(2,1,0) tid=(15,11,0)
GPGPU-Sim PTX: 29400000 instructions simulated : ctaid=(10,2,0) tid=(15,9,0)
GPGPU-Sim PTX: 29500000 instructions simulated : ctaid=(16,1,0) tid=(15,15,0)
GPGPU-Sim PTX: 29600000 instructions simulated : ctaid=(6,2,0) tid=(15,9,0)
GPGPU-Sim uArch: Shader 7 finished CTA #2 (59172,0), 5 CTAs running
GPGPU-Sim uArch: core:  7, cta: 2 initialized @(59173,0)
GPGPU-Sim PTX: 29700000 instructions simulated : ctaid=(26,1,0) tid=(15,3,0)
GPGPU-Sim uArch: cycles simulated: 59500  inst.: 29748000 (ipc=500.0) sim_rate=743700 (inst/sec) elapsed = 0:0:00:40 / Fri Dec 16 04:18:24 2016
GPGPU-Sim PTX: 29800000 instructions simulated : ctaid=(27,1,0) tid=(15,9,0)
GPGPU-Sim uArch: Shader 3 finished CTA #2 (59531,0), 5 CTAs running
GPGPU-Sim uArch: core:  3, cta: 2 initialized @(59532,0)
GPGPU-Sim PTX: 29900000 instructions simulated : ctaid=(23,1,0) tid=(15,5,0)
GPGPU-Sim uArch: Shader 0 finished CTA #2 (59741,0), 5 CTAs running
GPGPU-Sim uArch: core:  0, cta: 2 initialized @(59742,0)
GPGPU-Sim uArch: Shader 11 finished CTA #2 (59785,0), 5 CTAs running
GPGPU-Sim uArch: core: 11, cta: 2 initialized @(59786,0)
GPGPU-Sim PTX: 30000000 instructions simulated : ctaid=(1,1,0) tid=(15,3,0)
GPGPU-Sim uArch: Shader 13 finished CTA #2 (59949,0), 5 CTAs running
GPGPU-Sim uArch: core: 13, cta: 2 initialized @(59950,0)
GPGPU-Sim PTX: 30100000 instructions simulated : ctaid=(31,0,0) tid=(15,13,0)
GPGPU-Sim PTX: 30200000 instructions simulated : ctaid=(11,2,0) tid=(15,13,0)
GPGPU-Sim uArch: Shader 10 finished CTA #2 (60438,0), 5 CTAs running
GPGPU-Sim uArch: core: 10, cta: 2 initialized @(60439,0)
GPGPU-Sim PTX: 30300000 instructions simulated : ctaid=(25,1,0) tid=(15,11,0)
GPGPU-Sim uArch: Shader 14 finished CTA #2 (60486,0), 5 CTAs running
GPGPU-Sim uArch: core: 14, cta: 2 initialized @(60487,0)
GPGPU-Sim PTX: 30400000 instructions simulated : ctaid=(3,1,0) tid=(15,11,0)
GPGPU-Sim uArch: Shader 2 finished CTA #2 (60668,0), 5 CTAs running
GPGPU-Sim uArch: core:  2, cta: 2 initialized @(60669,0)
GPGPU-Sim PTX: 30500000 instructions simulated : ctaid=(1,2,0) tid=(15,5,0)
GPGPU-Sim uArch: Shader 1 finished CTA #2 (60912,0), 5 CTAs running
GPGPU-Sim uArch: core:  1, cta: 2 initialized @(60913,0)
GPGPU-Sim uArch: Shader 6 finished CTA #2 (60916,0), 5 CTAs running
GPGPU-Sim uArch: core:  6, cta: 2 initialized @(60917,0)
GPGPU-Sim uArch: Shader 9 finished CTA #2 (60949,0), 5 CTAs running
GPGPU-Sim uArch: core:  9, cta: 2 initialized @(60950,0)
GPGPU-Sim uArch: cycles simulated: 61000  inst.: 30544800 (ipc=500.7) sim_rate=744995 (inst/sec) elapsed = 0:0:00:41 / Fri Dec 16 04:18:25 2016
GPGPU-Sim PTX: 30600000 instructions simulated : ctaid=(13,2,0) tid=(15,1,0)
GPGPU-Sim PTX: 30700000 instructions simulated : ctaid=(9,1,0) tid=(15,11,0)
GPGPU-Sim PTX: 30800000 instructions simulated : ctaid=(27,1,0) tid=(15,9,0)
GPGPU-Sim PTX: 30900000 instructions simulated : ctaid=(23,1,0) tid=(15,15,0)
GPGPU-Sim uArch: Shader 5 finished CTA #2 (61591,0), 5 CTAs running
GPGPU-Sim uArch: core:  5, cta: 2 initialized @(61592,0)
GPGPU-Sim uArch: Shader 12 finished CTA #2 (61635,0), 5 CTAs running
GPGPU-Sim uArch: core: 12, cta: 2 initialized @(61636,0)
GPGPU-Sim PTX: 31000000 instructions simulated : ctaid=(4,3,0) tid=(15,1,0)
GPGPU-Sim PTX: 31100000 instructions simulated : ctaid=(19,1,0) tid=(15,7,0)
GPGPU-Sim uArch: cycles simulated: 62000  inst.: 31067456 (ipc=501.1) sim_rate=739701 (inst/sec) elapsed = 0:0:00:42 / Fri Dec 16 04:18:26 2016
GPGPU-Sim PTX: 31200000 instructions simulated : ctaid=(15,1,0) tid=(15,1,0)
GPGPU-Sim PTX: 31300000 instructions simulated : ctaid=(29,1,0) tid=(15,9,0)
GPGPU-Sim PTX: 31400000 instructions simulated : ctaid=(26,1,0) tid=(15,11,0)
GPGPU-Sim PTX: 31500000 instructions simulated : ctaid=(29,1,0) tid=(15,1,0)
GPGPU-Sim PTX: 31600000 instructions simulated : ctaid=(25,1,0) tid=(15,13,0)
GPGPU-Sim PTX: 31700000 instructions simulated : ctaid=(28,1,0) tid=(15,7,0)
GPGPU-Sim PTX: 31800000 instructions simulated : ctaid=(23,2,0) tid=(15,9,0)
GPGPU-Sim uArch: Shader 4 finished CTA #2 (63483,0), 5 CTAs running
GPGPU-Sim uArch: core:  4, cta: 2 initialized @(63484,0)
GPGPU-Sim uArch: cycles simulated: 63500  inst.: 31844480 (ipc=501.5) sim_rate=740569 (inst/sec) elapsed = 0:0:00:43 / Fri Dec 16 04:18:27 2016
GPGPU-Sim PTX: 31900000 instructions simulated : ctaid=(17,2,0) tid=(15,11,0)
GPGPU-Sim PTX: 32000000 instructions simulated : ctaid=(22,1,0) tid=(15,5,0)
GPGPU-Sim uArch: Shader 8 finished CTA #2 (63746,0), 5 CTAs running
GPGPU-Sim uArch: core:  8, cta: 2 initialized @(63747,0)
GPGPU-Sim PTX: 32100000 instructions simulated : ctaid=(19,1,0) tid=(15,3,0)
GPGPU-Sim PTX: 32200000 instructions simulated : ctaid=(26,1,0) tid=(15,7,0)
GPGPU-Sim PTX: 32300000 instructions simulated : ctaid=(16,1,0) tid=(15,11,0)
GPGPU-Sim PTX: 32400000 instructions simulated : ctaid=(16,3,0) tid=(15,15,0)
GPGPU-Sim PTX: 32500000 instructions simulated : ctaid=(0,4,0) tid=(15,15,0)
GPGPU-Sim PTX: 32600000 instructions simulated : ctaid=(13,1,0) tid=(15,1,0)
GPGPU-Sim uArch: cycles simulated: 65000  inst.: 32619776 (ipc=501.8) sim_rate=741358 (inst/sec) elapsed = 0:0:00:44 / Fri Dec 16 04:18:28 2016
GPGPU-Sim PTX: 32700000 instructions simulated : ctaid=(8,2,0) tid=(15,11,0)
GPGPU-Sim PTX: 32800000 instructions simulated : ctaid=(19,1,0) tid=(15,5,0)
GPGPU-Sim PTX: 32900000 instructions simulated : ctaid=(17,1,0) tid=(15,3,0)
GPGPU-Sim PTX: 33000000 instructions simulated : ctaid=(1,2,0) tid=(15,3,0)
GPGPU-Sim PTX: 33100000 instructions simulated : ctaid=(26,1,0) tid=(15,13,0)
GPGPU-Sim PTX: 33200000 instructions simulated : ctaid=(10,2,0) tid=(15,1,0)
GPGPU-Sim PTX: 33300000 instructions simulated : ctaid=(13,2,0) tid=(15,13,0)
GPGPU-Sim PTX: 33400000 instructions simulated : ctaid=(19,3,0) tid=(15,13,0)
GPGPU-Sim uArch: cycles simulated: 66500  inst.: 33385024 (ipc=502.0) sim_rate=741889 (inst/sec) elapsed = 0:0:00:45 / Fri Dec 16 04:18:29 2016
GPGPU-Sim PTX: 33500000 instructions simulated : ctaid=(12,2,0) tid=(15,7,0)
GPGPU-Sim PTX: 33600000 instructions simulated : ctaid=(14,1,0) tid=(15,9,0)
GPGPU-Sim PTX: 33700000 instructions simulated : ctaid=(11,2,0) tid=(15,13,0)
GPGPU-Sim PTX: 33800000 instructions simulated : ctaid=(26,1,0) tid=(15,7,0)
GPGPU-Sim PTX: 33900000 instructions simulated : ctaid=(16,1,0) tid=(15,13,0)
GPGPU-Sim PTX: 34000000 instructions simulated : ctaid=(10,2,0) tid=(15,11,0)
GPGPU-Sim PTX: 34100000 instructions simulated : ctaid=(15,1,0) tid=(15,11,0)
GPGPU-Sim PTX: 34200000 instructions simulated : ctaid=(12,2,0) tid=(15,9,0)
GPGPU-Sim uArch: cycles simulated: 68000  inst.: 34160832 (ipc=502.4) sim_rate=742626 (inst/sec) elapsed = 0:0:00:46 / Fri Dec 16 04:18:30 2016
GPGPU-Sim PTX: 34300000 instructions simulated : ctaid=(3,2,0) tid=(15,15,0)
GPGPU-Sim PTX: 34400000 instructions simulated : ctaid=(8,3,0) tid=(15,7,0)
GPGPU-Sim PTX: 34500000 instructions simulated : ctaid=(10,2,0) tid=(15,3,0)
GPGPU-Sim PTX: 34600000 instructions simulated : ctaid=(15,1,0) tid=(15,1,0)
GPGPU-Sim PTX: 34700000 instructions simulated : ctaid=(18,1,0) tid=(15,7,0)
GPGPU-Sim PTX: 34800000 instructions simulated : ctaid=(15,1,0) tid=(15,11,0)
GPGPU-Sim PTX: 34900000 instructions simulated : ctaid=(21,1,0) tid=(15,1,0)
GPGPU-Sim uArch: cycles simulated: 69500  inst.: 34936800 (ipc=502.7) sim_rate=743336 (inst/sec) elapsed = 0:0:00:47 / Fri Dec 16 04:18:31 2016
GPGPU-Sim PTX: 35000000 instructions simulated : ctaid=(3,2,0) tid=(15,11,0)
GPGPU-Sim PTX: 35100000 instructions simulated : ctaid=(25,1,0) tid=(15,3,0)
GPGPU-Sim PTX: 35200000 instructions simulated : ctaid=(8,2,0) tid=(15,5,0)
GPGPU-Sim PTX: 35300000 instructions simulated : ctaid=(4,2,0) tid=(15,5,0)
GPGPU-Sim PTX: 35400000 instructions simulated : ctaid=(26,1,0) tid=(15,11,0)
GPGPU-Sim PTX: 35500000 instructions simulated : ctaid=(15,1,0) tid=(15,3,0)
GPGPU-Sim PTX: 35600000 instructions simulated : ctaid=(26,1,0) tid=(15,11,0)
GPGPU-Sim PTX: 35700000 instructions simulated : ctaid=(15,3,0) tid=(15,1,0)
GPGPU-Sim uArch: cycles simulated: 71000  inst.: 35706496 (ipc=502.9) sim_rate=743885 (inst/sec) elapsed = 0:0:00:48 / Fri Dec 16 04:18:32 2016
GPGPU-Sim PTX: 35800000 instructions simulated : ctaid=(17,1,0) tid=(15,7,0)
GPGPU-Sim PTX: 35900000 instructions simulated : ctaid=(25,2,0) tid=(15,11,0)
GPGPU-Sim PTX: 36000000 instructions simulated : ctaid=(6,2,0) tid=(15,11,0)
GPGPU-Sim PTX: 36100000 instructions simulated : ctaid=(15,1,0) tid=(15,5,0)
GPGPU-Sim PTX: 36200000 instructions simulated : ctaid=(23,1,0) tid=(15,1,0)
GPGPU-Sim PTX: 36300000 instructions simulated : ctaid=(15,1,0) tid=(15,15,0)
GPGPU-Sim PTX: 36400000 instructions simulated : ctaid=(22,1,0) tid=(15,11,0)
GPGPU-Sim PTX: 36500000 instructions simulated : ctaid=(24,1,0) tid=(15,5,0)
GPGPU-Sim uArch: cycles simulated: 72500  inst.: 36480192 (ipc=503.2) sim_rate=744493 (inst/sec) elapsed = 0:0:00:49 / Fri Dec 16 04:18:33 2016
GPGPU-Sim PTX: 36600000 instructions simulated : ctaid=(18,1,0) tid=(15,15,0)
GPGPU-Sim PTX: 36700000 instructions simulated : ctaid=(20,1,0) tid=(15,11,0)
GPGPU-Sim PTX: 36800000 instructions simulated : ctaid=(7,2,0) tid=(15,15,0)
GPGPU-Sim PTX: 36900000 instructions simulated : ctaid=(4,2,0) tid=(15,9,0)
GPGPU-Sim PTX: 37000000 instructions simulated : ctaid=(29,1,0) tid=(15,7,0)
GPGPU-Sim uArch: Shader 10 finished CTA #3 (73531,0), 5 CTAs running
GPGPU-Sim uArch: core: 10, cta: 3 initialized @(73532,0)
GPGPU-Sim PTX: 37100000 instructions simulated : ctaid=(24,1,0) tid=(15,5,0)
GPGPU-Sim PTX: 37200000 instructions simulated : ctaid=(14,1,0) tid=(15,13,0)
GPGPU-Sim PTX: 37300000 instructions simulated : ctaid=(5,3,0) tid=(15,15,0)
GPGPU-Sim uArch: cycles simulated: 74000  inst.: 37282976 (ipc=503.8) sim_rate=745659 (inst/sec) elapsed = 0:0:00:50 / Fri Dec 16 04:18:34 2016
GPGPU-Sim uArch: Shader 14 finished CTA #3 (74044,0), 5 CTAs running
GPGPU-Sim uArch: core: 14, cta: 3 initialized @(74045,0)
GPGPU-Sim uArch: Shader 0 finished CTA #3 (74064,0), 5 CTAs running
GPGPU-Sim uArch: core:  0, cta: 3 initialized @(74065,0)
GPGPU-Sim PTX: 37400000 instructions simulated : ctaid=(1,2,0) tid=(15,3,0)
GPGPU-Sim uArch: Shader 7 finished CTA #3 (74182,0), 5 CTAs running
GPGPU-Sim uArch: core:  7, cta: 3 initialized @(74183,0)
GPGPU-Sim PTX: 37500000 instructions simulated : ctaid=(18,1,0) tid=(15,15,0)
GPGPU-Sim PTX: 37600000 instructions simulated : ctaid=(3,2,0) tid=(15,3,0)
GPGPU-Sim uArch: Shader 6 finished CTA #3 (74658,0), 5 CTAs running
GPGPU-Sim uArch: core:  6, cta: 3 initialized @(74659,0)
GPGPU-Sim PTX: 37700000 instructions simulated : ctaid=(23,1,0) tid=(15,11,0)
GPGPU-Sim uArch: Shader 3 finished CTA #3 (74697,0), 5 CTAs running
GPGPU-Sim uArch: core:  3, cta: 3 initialized @(74698,0)
GPGPU-Sim PTX: 37800000 instructions simulated : ctaid=(2,2,0) tid=(15,11,0)
GPGPU-Sim uArch: cycles simulated: 75000  inst.: 37813856 (ipc=504.2) sim_rate=741448 (inst/sec) elapsed = 0:0:00:51 / Fri Dec 16 04:18:35 2016
GPGPU-Sim PTX: 37900000 instructions simulated : ctaid=(5,2,0) tid=(15,13,0)
GPGPU-Sim uArch: Shader 11 finished CTA #3 (75062,0), 5 CTAs running
GPGPU-Sim uArch: core: 11, cta: 3 initialized @(75063,0)
GPGPU-Sim PTX: 38000000 instructions simulated : ctaid=(2,2,0) tid=(15,9,0)
GPGPU-Sim PTX: 38100000 instructions simulated : ctaid=(24,1,0) tid=(15,3,0)
GPGPU-Sim uArch: Shader 4 finished CTA #3 (75563,0), 5 CTAs running
GPGPU-Sim uArch: core:  4, cta: 3 initialized @(75564,0)
GPGPU-Sim PTX: 38200000 instructions simulated : ctaid=(1,2,0) tid=(15,5,0)
GPGPU-Sim PTX: 38300000 instructions simulated : ctaid=(3,3,0) tid=(15,1,0)
GPGPU-Sim uArch: Shader 12 finished CTA #3 (75957,0), 5 CTAs running
GPGPU-Sim uArch: core: 12, cta: 3 initialized @(75958,0)
GPGPU-Sim PTX: 38400000 instructions simulated : ctaid=(3,2,0) tid=(15,7,0)
GPGPU-Sim uArch: Shader 2 finished CTA #3 (76087,0), 5 CTAs running
GPGPU-Sim uArch: core:  2, cta: 3 initialized @(76088,0)
GPGPU-Sim uArch: Shader 8 finished CTA #3 (76112,0), 5 CTAs running
GPGPU-Sim uArch: core:  8, cta: 3 initialized @(76113,0)
GPGPU-Sim PTX: 38500000 instructions simulated : ctaid=(9,2,0) tid=(15,11,0)
GPGPU-Sim PTX: 38600000 instructions simulated : ctaid=(20,2,0) tid=(15,11,0)
GPGPU-Sim uArch: cycles simulated: 76500  inst.: 38607488 (ipc=504.7) sim_rate=742451 (inst/sec) elapsed = 0:0:00:52 / Fri Dec 16 04:18:36 2016
GPGPU-Sim PTX: 38700000 instructions simulated : ctaid=(21,1,0) tid=(15,15,0)
GPGPU-Sim PTX: 38800000 instructions simulated : ctaid=(1,3,0) tid=(15,5,0)
GPGPU-Sim PTX: 38900000 instructions simulated : ctaid=(4,3,0) tid=(15,11,0)
GPGPU-Sim PTX: 39000000 instructions simulated : ctaid=(14,2,0) tid=(15,5,0)
GPGPU-Sim PTX: 39100000 instructions simulated : ctaid=(29,1,0) tid=(15,7,0)
GPGPU-Sim PTX: 39200000 instructions simulated : ctaid=(9,2,0) tid=(15,3,0)
GPGPU-Sim PTX: 39300000 instructions simulated : ctaid=(21,2,0) tid=(15,11,0)
GPGPU-Sim PTX: 39400000 instructions simulated : ctaid=(6,2,0) tid=(15,13,0)
GPGPU-Sim uArch: cycles simulated: 78000  inst.: 39380864 (ipc=504.9) sim_rate=743035 (inst/sec) elapsed = 0:0:00:53 / Fri Dec 16 04:18:37 2016
GPGPU-Sim PTX: 39500000 instructions simulated : ctaid=(21,2,0) tid=(15,11,0)
GPGPU-Sim PTX: 39600000 instructions simulated : ctaid=(5,2,0) tid=(15,9,0)
GPGPU-Sim PTX: 39700000 instructions simulated : ctaid=(22,2,0) tid=(15,1,0)
GPGPU-Sim PTX: 39800000 instructions simulated : ctaid=(24,2,0) tid=(15,1,0)
GPGPU-Sim PTX: 39900000 instructions simulated : ctaid=(1,2,0) tid=(15,15,0)
GPGPU-Sim PTX: 40000000 instructions simulated : ctaid=(31,1,0) tid=(15,11,0)
GPGPU-Sim PTX: 40100000 instructions simulated : ctaid=(0,2,0) tid=(15,15,0)
GPGPU-Sim uArch: cycles simulated: 79500  inst.: 40131232 (ipc=504.8) sim_rate=743170 (inst/sec) elapsed = 0:0:00:54 / Fri Dec 16 04:18:38 2016
GPGPU-Sim PTX: 40200000 instructions simulated : ctaid=(7,2,0) tid=(15,9,0)
GPGPU-Sim PTX: 40300000 instructions simulated : ctaid=(7,2,0) tid=(15,7,0)
GPGPU-Sim PTX: 40400000 instructions simulated : ctaid=(9,2,0) tid=(15,13,0)
GPGPU-Sim PTX: 40500000 instructions simulated : ctaid=(30,1,0) tid=(15,15,0)
GPGPU-Sim PTX: 40600000 instructions simulated : ctaid=(1,2,0) tid=(15,15,0)
GPGPU-Sim PTX: 40700000 instructions simulated : ctaid=(0,2,0) tid=(15,15,0)
GPGPU-Sim uArch: Shader 9 finished CTA #3 (80525,0), 5 CTAs running
GPGPU-Sim uArch: core:  9, cta: 3 initialized @(80526,0)
GPGPU-Sim PTX: 40800000 instructions simulated : ctaid=(18,2,0) tid=(15,9,0)
GPGPU-Sim PTX: 40900000 instructions simulated : ctaid=(0,4,0) tid=(15,1,0)
GPGPU-Sim uArch: cycles simulated: 81000  inst.: 40890688 (ipc=504.8) sim_rate=743467 (inst/sec) elapsed = 0:0:00:55 / Fri Dec 16 04:18:39 2016
GPGPU-Sim PTX: 41000000 instructions simulated : ctaid=(25,2,0) tid=(15,5,0)
GPGPU-Sim PTX: 41100000 instructions simulated : ctaid=(19,3,0) tid=(15,1,0)
GPGPU-Sim PTX: 41200000 instructions simulated : ctaid=(17,3,0) tid=(15,9,0)
GPGPU-Sim uArch: Shader 13 finished CTA #3 (81539,0), 5 CTAs running
GPGPU-Sim uArch: core: 13, cta: 3 initialized @(81540,0)
GPGPU-Sim PTX: 41300000 instructions simulated : ctaid=(31,1,0) tid=(15,9,0)
GPGPU-Sim PTX: 41400000 instructions simulated : ctaid=(17,1,0) tid=(15,9,0)
GPGPU-Sim PTX: 41500000 instructions simulated : ctaid=(5,2,0) tid=(15,7,0)
GPGPU-Sim PTX: 41600000 instructions simulated : ctaid=(28,1,0) tid=(15,15,0)
GPGPU-Sim uArch: Shader 1 finished CTA #3 (82395,0), 5 CTAs running
GPGPU-Sim uArch: core:  1, cta: 3 initialized @(82396,0)
GPGPU-Sim PTX: 41700000 instructions simulated : ctaid=(4,2,0) tid=(15,1,0)
GPGPU-Sim uArch: cycles simulated: 82500  inst.: 41675424 (ipc=505.2) sim_rate=744204 (inst/sec) elapsed = 0:0:00:56 / Fri Dec 16 04:18:40 2016
GPGPU-Sim PTX: 41800000 instructions simulated : ctaid=(6,2,0) tid=(15,1,0)
GPGPU-Sim PTX: 41900000 instructions simulated : ctaid=(19,2,0) tid=(15,7,0)
GPGPU-Sim PTX: 42000000 instructions simulated : ctaid=(3,2,0) tid=(15,1,0)
GPGPU-Sim uArch: Shader 5 finished CTA #3 (83034,0), 5 CTAs running
GPGPU-Sim uArch: core:  5, cta: 3 initialized @(83035,0)
GPGPU-Sim PTX: 42100000 instructions simulated : ctaid=(0,2,0) tid=(15,9,0)
GPGPU-Sim PTX: 42200000 instructions simulated : ctaid=(11,3,0) tid=(15,13,0)
GPGPU-Sim uArch: cycles simulated: 83500  inst.: 42181376 (ipc=505.2) sim_rate=740024 (inst/sec) elapsed = 0:0:00:57 / Fri Dec 16 04:18:41 2016
GPGPU-Sim PTX: 42300000 instructions simulated : ctaid=(26,2,0) tid=(15,7,0)
GPGPU-Sim PTX: 42400000 instructions simulated : ctaid=(6,3,0) tid=(15,13,0)
GPGPU-Sim PTX: 42500000 instructions simulated : ctaid=(18,2,0) tid=(15,13,0)
GPGPU-Sim PTX: 42600000 instructions simulated : ctaid=(21,2,0) tid=(15,7,0)
GPGPU-Sim PTX: 42700000 instructions simulated : ctaid=(15,2,0) tid=(15,7,0)
GPGPU-Sim PTX: 42800000 instructions simulated : ctaid=(15,2,0) tid=(15,11,0)
GPGPU-Sim PTX: 42900000 instructions simulated : ctaid=(29,1,0) tid=(15,9,0)
GPGPU-Sim PTX: 43000000 instructions simulated : ctaid=(17,2,0) tid=(15,3,0)
GPGPU-Sim uArch: cycles simulated: 85000  inst.: 42967296 (ipc=505.5) sim_rate=740815 (inst/sec) elapsed = 0:0:00:58 / Fri Dec 16 04:18:42 2016
GPGPU-Sim PTX: 43100000 instructions simulated : ctaid=(10,2,0) tid=(15,13,0)
GPGPU-Sim PTX: 43200000 instructions simulated : ctaid=(30,1,0) tid=(15,3,0)
GPGPU-Sim PTX: 43300000 instructions simulated : ctaid=(30,1,0) tid=(15,7,0)
GPGPU-Sim PTX: 43400000 instructions simulated : ctaid=(15,2,0) tid=(15,9,0)
GPGPU-Sim PTX: 43500000 instructions simulated : ctaid=(18,2,0) tid=(15,11,0)
GPGPU-Sim PTX: 43600000 instructions simulated : ctaid=(7,2,0) tid=(15,13,0)
GPGPU-Sim PTX: 43700000 instructions simulated : ctaid=(13,2,0) tid=(15,3,0)
GPGPU-Sim uArch: cycles simulated: 86500  inst.: 43731680 (ipc=505.6) sim_rate=741214 (inst/sec) elapsed = 0:0:00:59 / Fri Dec 16 04:18:43 2016
GPGPU-Sim PTX: 43800000 instructions simulated : ctaid=(22,2,0) tid=(15,3,0)
GPGPU-Sim PTX: 43900000 instructions simulated : ctaid=(0,2,0) tid=(15,15,0)
GPGPU-Sim PTX: 44000000 instructions simulated : ctaid=(21,2,0) tid=(15,11,0)
GPGPU-Sim PTX: 44100000 instructions simulated : ctaid=(25,2,0) tid=(15,13,0)
GPGPU-Sim PTX: 44200000 instructions simulated : ctaid=(23,2,0) tid=(15,1,0)
GPGPU-Sim PTX: 44300000 instructions simulated : ctaid=(25,2,0) tid=(15,9,0)
GPGPU-Sim PTX: 44400000 instructions simulated : ctaid=(17,2,0) tid=(15,5,0)
GPGPU-Sim PTX: 44500000 instructions simulated : ctaid=(17,2,0) tid=(15,11,0)
GPGPU-Sim uArch: cycles simulated: 88000  inst.: 44513856 (ipc=505.8) sim_rate=741897 (inst/sec) elapsed = 0:0:01:00 / Fri Dec 16 04:18:44 2016
GPGPU-Sim PTX: 44600000 instructions simulated : ctaid=(9,2,0) tid=(15,7,0)
GPGPU-Sim PTX: 44700000 instructions simulated : ctaid=(8,2,0) tid=(15,7,0)
GPGPU-Sim PTX: 44800000 instructions simulated : ctaid=(4,2,0) tid=(15,15,0)
GPGPU-Sim PTX: 44900000 instructions simulated : ctaid=(26,2,0) tid=(15,5,0)
GPGPU-Sim PTX: 45000000 instructions simulated : ctaid=(20,2,0) tid=(15,1,0)
GPGPU-Sim PTX: 45100000 instructions simulated : ctaid=(0,2,0) tid=(15,1,0)
GPGPU-Sim PTX: 45200000 instructions simulated : ctaid=(8,2,0) tid=(15,9,0)
GPGPU-Sim PTX: 45300000 instructions simulated : ctaid=(30,1,0) tid=(15,3,0)
GPGPU-Sim uArch: cycles simulated: 89500  inst.: 45301312 (ipc=506.2) sim_rate=742644 (inst/sec) elapsed = 0:0:01:01 / Fri Dec 16 04:18:45 2016
GPGPU-Sim PTX: 45400000 instructions simulated : ctaid=(2,2,0) tid=(15,15,0)
GPGPU-Sim uArch: Shader 3 finished CTA #4 (89670,0), 5 CTAs running
GPGPU-Sim uArch: core:  3, cta: 4 initialized @(89671,0)
GPGPU-Sim PTX: 45500000 instructions simulated : ctaid=(6,2,0) tid=(15,5,0)
GPGPU-Sim uArch: Shader 4 finished CTA #4 (89833,0), 5 CTAs running
GPGPU-Sim uArch: core:  4, cta: 4 initialized @(89834,0)
GPGPU-Sim PTX: 45600000 instructions simulated : ctaid=(0,2,0) tid=(15,13,0)
GPGPU-Sim uArch: Shader 10 finished CTA #4 (89990,0), 5 CTAs running
GPGPU-Sim uArch: core: 10, cta: 4 initialized @(89991,0)
GPGPU-Sim uArch: Shader 6 finished CTA #4 (90026,0), 5 CTAs running
GPGPU-Sim uArch: core:  6, cta: 4 initialized @(90027,0)
GPGPU-Sim PTX: 45700000 instructions simulated : ctaid=(2,2,0) tid=(15,7,0)
GPGPU-Sim uArch: Shader 14 finished CTA #4 (90226,0), 5 CTAs running
GPGPU-Sim uArch: core: 14, cta: 4 initialized @(90227,0)
GPGPU-Sim PTX: 45800000 instructions simulated : ctaid=(4,3,0) tid=(15,5,0)
GPGPU-Sim PTX: 45900000 instructions simulated : ctaid=(0,2,0) tid=(15,9,0)
GPGPU-Sim uArch: Shader 8 finished CTA #4 (90659,0), 5 CTAs running
GPGPU-Sim uArch: core:  8, cta: 4 initialized @(90660,0)
GPGPU-Sim PTX: 46000000 instructions simulated : ctaid=(19,2,0) tid=(15,1,0)
GPGPU-Sim PTX: 46100000 instructions simulated : ctaid=(3,3,0) tid=(15,11,0)
GPGPU-Sim uArch: cycles simulated: 91000  inst.: 46108544 (ipc=506.7) sim_rate=743686 (inst/sec) elapsed = 0:0:01:02 / Fri Dec 16 04:18:46 2016
GPGPU-Sim PTX: 46200000 instructions simulated : ctaid=(31,2,0) tid=(15,15,0)
GPGPU-Sim uArch: Shader 12 finished CTA #4 (91199,0), 5 CTAs running
GPGPU-Sim uArch: core: 12, cta: 4 initialized @(91200,0)
GPGPU-Sim PTX: 46300000 instructions simulated : ctaid=(8,2,0) tid=(15,9,0)
GPGPU-Sim PTX: 46400000 instructions simulated : ctaid=(24,2,0) tid=(15,7,0)
GPGPU-Sim PTX: 46500000 instructions simulated : ctaid=(4,2,0) tid=(15,15,0)
GPGPU-Sim PTX: 46600000 instructions simulated : ctaid=(13,2,0) tid=(15,11,0)
GPGPU-Sim PTX: 46700000 instructions simulated : ctaid=(31,2,0) tid=(15,13,0)
GPGPU-Sim uArch: Shader 9 finished CTA #4 (92014,0), 5 CTAs running
GPGPU-Sim uArch: core:  9, cta: 4 initialized @(92015,0)
GPGPU-Sim uArch: Shader 13 finished CTA #4 (92024,0), 5 CTAs running
GPGPU-Sim uArch: core: 13, cta: 4 initialized @(92025,0)
GPGPU-Sim PTX: 46800000 instructions simulated : ctaid=(18,2,0) tid=(15,5,0)
GPGPU-Sim uArch: Shader 5 finished CTA #4 (92250,0), 5 CTAs running
GPGPU-Sim uArch: core:  5, cta: 4 initialized @(92251,0)
GPGPU-Sim uArch: Shader 1 finished CTA #4 (92323,0), 5 CTAs running
GPGPU-Sim uArch: core:  1, cta: 4 initialized @(92324,0)
GPGPU-Sim PTX: 46900000 instructions simulated : ctaid=(12,2,0) tid=(15,3,0)
GPGPU-Sim uArch: cycles simulated: 92500  inst.: 46909536 (ipc=507.1) sim_rate=744595 (inst/sec) elapsed = 0:0:01:03 / Fri Dec 16 04:18:47 2016
GPGPU-Sim PTX: 47000000 instructions simulated : ctaid=(11,2,0) tid=(15,1,0)
[...]
traffic_breakdown_coretomem[CONST_ACC_R] = 120 {8:15,}
traffic_breakdown_coretomem[GLOBAL_ACC_R] = 2737832 {8:342229,}
traffic_breakdown_coretomem[GLOBAL_ACC_W] = 655360 {40:16384,}
traffic_breakdown_coretomem[INST_ACC_R] = 840 {8:105,}
traffic_breakdown_memtocore[CONST_ACC_R] = 1080 {72:15,}
traffic_breakdown_memtocore[GLOBAL_ACC_R] = 46543144 {136:342229,}
traffic_breakdown_memtocore[GLOBAL_ACC_W] = 131072 {8:16384,}
traffic_breakdown_memtocore[INST_ACC_R] = 14280 {136:105,}
maxmrqlatency = 103 
maxdqlatency = 0 
maxmflatency = 1055 
averagemflatency = 180 
max_icnt2mem_latency = 652 
max_icnt2sh_latency = 1068030 
mrq_lat_table:5856 	244 	460 	755 	787 	254 	25 	0 	0 	0 	0 	0 	0 	0 	0 	0 	0 	0 	0 	0 	0 	0 	0 	0 	0 	0 	0 	0 	0 	0 	0 	0 	
dq_lat_table:0 	0 	0 	0 	0 	0 	0 	0 	0 	0 	0 	0 	0 	0 	0 	0 	0 	0 	0 	0 	0 	0 	0 	0 	0 	0 	0 	0 	0 	0 	0 	0 	
mf_lat_table:0 	0 	0 	0 	0 	0 	0 	337416 	19758 	1453 	1 	0 	0 	0 	0 	0 	0 	0 	0 	0 	0 	0 	0 	0 	0 	0 	0 	0 	0 	0 	0 	0 	
icnt2mem_lat_table:0 	0 	0 	328710 	27381 	1099 	316 	565 	629 	33 	0 	0 	0 	0 	0 	0 	0 	0 	0 	0 	0 	0 	0 	0 	
icnt2sh_lat_table:0 	0 	0 	63002 	119901 	116337 	42056 	948 	0 	0 	0 	0 	0 	0 	176 	544 	960 	2112 	4128 	8160 	304 	0 	0 	0 	
mf_lat_pw_table:0 	0 	0 	0 	0 	0 	0 	2100 	5 	5 	0 	0 	0 	0 	0 	0 	0 	0 	0 	0 	0 	0 	0 	0 	0 	0 	0 	0 	0 	0 	0 	0 	
maximum concurrent accesses to same row:
dram[0]:        32        32        32        32        16        16        32        32        32        32        57        60        64        64        70        69 
dram[1]:        32        32        32        32        24        24        32        32        32        32        57        60        72        72        64        64 
dram[2]:        16        32        32        32        16        16        32        32        32        32        57        59        64        64        70        69 
dram[3]:        32        32        32        32        24        24        32        32        32        32        57        59        72        71        64        64 
dram[4]:        32        32        32        32        16        16        32        32        32        32        60        59        64        64        69        69 
dram[5]:        32        32        32        32        24        24        32        32        32        32        60        59        72        71        64        64 
maximum service time to same row:
dram[0]:    549099    549211    737967    738016    905957    905954     29948     30041    194778    194863    383405    383365    435391    435418    433107    433291 
dram[1]:    548977    549014    747649    747645    910178    910193     47904     48004    247600    247588    420525    420542    494971    494947    497394    497413 
dram[2]:    541031    549267    738041    738150    905956    905966     30025     30004    194850    194728    383262    383702    435393    435400    433107    433171 
dram[3]:    536024    548970    747647    747658    910176    910192     47903     47947    247598    247597    420527    420547    494972    494960    497396    497408 
dram[4]:    549227    549258    737995    738144    905956    905966     30052     29995    194771    194647    383385    383694    435416    435402    433291    433172 
dram[5]:    549011    548974    747646    747656    910194    910191     48003     47947    247588    247597    420542    420547    494945    494960    497412    497410 
average row accesses per activate:
dram[0]: 20.600000 49.000000 48.000000 48.000000 14.333333 14.333333 21.333334 21.333334 32.000000 32.000000 44.500000 46.000000 48.000000 48.000000 51.000000 50.500000 
dram[1]: 32.666668 48.000000 49.500000 49.500000 14.333333 14.333333 32.000000 32.000000 32.000000 32.000000 44.500000 46.000000 52.000000 52.000000 48.000000 48.000000 
dram[2]: 25.500000 50.500000 48.000000 48.000000 14.333333 14.000000 21.333334 21.333334 32.000000 32.000000 44.500000 45.500000 48.000000 48.000000 51.000000 50.500000 
dram[3]: 32.333332 48.000000 49.500000 49.000000 14.333333 14.000000 32.000000 32.000000 32.000000 32.000000 44.500000 45.500000 52.000000 51.500000 48.000000 48.000000 
dram[4]: 49.500000 50.500000 48.000000 48.000000 14.333333 14.000000 21.333334 21.333334 32.000000 32.000000 46.000000 45.500000 48.000000 48.000000 50.500000 50.500000 
dram[5]: 48.000000 48.000000 49.500000 49.000000 14.333333 14.000000 32.000000 32.000000 32.000000 32.000000 46.000000 45.500000 52.000000 51.500000 48.000000 48.000000 
average row locality = 8381/253 = 33.126484
number of total memory accesses made:
dram[0]:         0         0         0         0         0         0         0         0         0         0         0         0         0         0         0         0 
dram[1]:         0         0         0         0         0         0         0         0         0         0         0         0         0         0         0         0 
dram[2]:         0         0         0         0         0         0         0         0         0         0         0         0         0         0         0         0 
dram[3]:         0         0         0         0         0         0         0         0         0         0         0         0         0         0         0         0 
dram[4]:         0         0         0         0         0         0         0         0         0         0         0         0         0         0         0         0 
dram[5]:         0         0         0         0         0         0         0         0         0         0         0         0         0         0         0         0 
total accesses: 0
min_bank_accesses = 0!
min_chip_accesses = 0!
number of total read accesses:
dram[0]:        67        64        64        64        64        64        64        64        64        64        64        64        64        64        64        64 
dram[1]:        66        64        64        64        64        64        64        64        64        64        64        64        64        64        64        64 
dram[2]:        66        64        64        64        64        64        64        64        64        64        64        64        64        64        64        64 
dram[3]:        65        64        64        64        64        64        64        64        64        64        64        64        64        64        64        64 
dram[4]:        64        64        64        64        64        64        64        64        64        64        64        64        64        64        64        64 
dram[5]:        64        64        64        64        64        64        64        64        64        64        64        64        64        64        64        64 
total reads: 6152
bank skew: 67/64 = 1.05
chip skew: 1027/1024 = 1.00
number of total write accesses:
dram[0]:        36        34        32        32        22        22         0         0         0         0        25        28        32        32        38        37 
dram[1]:        32        32        35        35        22        22         0         0         0         0        25        28        40        40        32        32 
dram[2]:        36        37        32        32        22        20         0         0         0         0        25        27        32        32        38        37 
dram[3]:        32        32        35        34        22        20         0         0         0         0        25        27        40        39        32        32 
dram[4]:        35        37        32        32        22        20         0         0         0         0        28        27        32        32        37        37 
dram[5]:        32        32        35        34        22        20         0         0         0         0        28        27        40        39        32        32 
total reads: 2229
min_bank_accesses = 0!
chip skew: 375/370 = 1.01
average mf latency per bank:
dram[0]:       7528      7599      8052      7763     10473     10231     20419     19714     20528     19606      9579      8731      6598      6326      6061      5801
dram[1]:       3840      3862      3847      3796      5787      5713     11067     10800     10599     10197      5501      4953      3751      3642      3580      3226
dram[2]:       7316      7525      7798      7971     10106     11028     19843     20151     19760     20247      9281      8836      6348      6484      5860      5871
dram[3]:       3793      3925      3764      3875      5638      6249     10699     10854     10284     10505      5314      5134      3631      3741      3453      3241
dram[4]:       7729      7460      7985      7871     10544     10948     20390     19897     20116     19977      8913      8727      6511      6389      5975      5787
dram[5]:       3957      3848      3903      3798      5873      6080     11099     10780     10523     10318      5068      5033      3749      3657      3306      3199
maximum mf latency per bank:
dram[0]:        881       742       884       856       869       820       946       778       879       718       803       838       400       429       420       402
dram[1]:        367       423       355       348       372       359       396       369       367       362       406       404       364       355       348       353
dram[2]:        791       803       875      1019       911       832       892       840       814       784       725       735       449       401       433       433
dram[3]:        406       379       368       411       353       395       396       376       372       368       373       394       358       366       365       414
dram[4]:        790       791       898      1055       839       785       831       905       784       770       796       790       410       428       431       392
dram[5]:        408       375       348       441       388       455       390       388       355       359       416       375       356       347       343       439

Number of Memory Banks Accessed per Memory Operation per Warp (from 0):
0	0	0	0	0	0	0	0	0	0	0	0	0	0	0	0	0	0	0	0	0	0	0	0	0	0	0	0	0	0	0	0	0	0	0	0	0	0	0	0	0	0	0	0	0	0	0	0	0	0	0	0	0	0	0	0	0	0	0	0	0	0	0	0	0	0	0	0	0	0	0	0	0	0	0	0	0	0	0	0	0	0	0	0	0	0	0	0	0	0	0	0	0	0	0	0	
Average # of Memory Banks Accessed per Memory Operation per Warp=-nan

position of mrq chosen
0	0	0	0	0	0	0	0	0	0	0	0	0	0	0	0	

average position of mrq chosen = -nan
Memory Partition 0: 
Cache L2_bank_000:
MSHR contents

Cache L2_bank_001:
MSHR contents

In Dram Latency Queue (total = 0): 
DRAM[0]: 16 bks, busW=4 BL=8 CL=12, tRRD=2 tCCD=6, tRCD=12 tRAS=28 tRP=12 tRC=40
n_cmd=1409800 n_nop=1407302 n_act=45 n_pre=29 n_req=1397 n_rd=2054 n_write=370 bw_util=0.003439
n_activity=15202 dram_eff=0.3189
bk0: 134a 1408461i bk1: 128a 1408689i bk2: 128a 1408700i bk3: 128a 1408699i bk4: 128a 1408735i bk5: 128a 1408664i bk6: 128a 1409210i bk7: 128a 1409291i bk8: 128a 1409467i bk9: 128a 1409455i bk10: 128a 1408962i bk11: 128a 1408889i bk12: 128a 1408836i bk13: 128a 1408688i bk14: 128a 1408817i bk15: 128a 1408707i 
dram_util_bins: 0 0 0 0 0 0 0 0 0 0
dram_eff_bins: 0 0 0 0 0 0 0 0 0 0
mrqq: max=10 avg=0.00676621
Memory Partition 1: 
Cache L2_bank_002:
MSHR contents

Cache L2_bank_003:
MSHR contents

In Dram Latency Queue (total = 0): 
DRAM[1]: 16 bks, busW=4 BL=8 CL=12, tRRD=2 tCCD=6, tRCD=12 tRAS=28 tRP=12 tRC=40
n_cmd=1409800 n_nop=1407307 n_act=41 n_pre=25 n_req=1401 n_rd=2052 n_write=375 bw_util=0.003443
n_activity=15651 dram_eff=0.3101
bk0: 132a 1408786i bk1: 128a 1408752i bk2: 128a 1408773i bk3: 128a 1408828i bk4: 128a 1408912i bk5: 128a 1408871i bk6: 128a 1409476i bk7: 128a 1409458i bk8: 128a 1409492i bk9: 128a 1409488i bk10: 128a 1409025i bk11: 128a 1408928i bk12: 128a 1408702i bk13: 128a 1408689i bk14: 128a 1408774i bk15: 128a 1408764i 
dram_util_bins: 0 0 0 0 0 0 0 0 0 0
dram_eff_bins: 0 0 0 0 0 0 0 0 0 0
mrqq: max=10 avg=0.00580295
Memory Partition 2: 
Cache L2_bank_004:
MSHR contents

Cache L2_bank_005:
MSHR contents

In Dram Latency Queue (total = 0): 
DRAM[2]: 16 bks, busW=4 BL=8 CL=12, tRRD=2 tCCD=6, tRCD=12 tRAS=28 tRP=12 tRC=40
n_cmd=1409800 n_nop=1407306 n_act=44 n_pre=28 n_req=1396 n_rd=2052 n_write=370 bw_util=0.003436
n_activity=15184 dram_eff=0.319
bk0: 132a 1408610i bk1: 128a 1408689i bk2: 128a 1408799i bk3: 128a 1408596i bk4: 128a 1408754i bk5: 128a 1408658i bk6: 128a 1409223i bk7: 128a 1409212i bk8: 128a 1409454i bk9: 128a 1409466i bk10: 128a 1408921i bk11: 128a 1408931i bk12: 128a 1408813i bk13: 128a 1408719i bk14: 128a 1408878i bk15: 128a 1408626i 
dram_util_bins: 0 0 0 0 0 0 0 0 0 0
dram_eff_bins: 0 0 0 0 0 0 0 0 0 0
mrqq: max=13 avg=0.00633565
Memory Partition 3: 
Cache L2_bank_006:
MSHR contents

Cache L2_bank_007:
MSHR contents

In Dram Latency Queue (total = 0): 
DRAM[3]: 16 bks, busW=4 BL=8 CL=12, tRRD=2 tCCD=6, tRCD=12 tRAS=28 tRP=12 tRC=40
n_cmd=1409800 n_nop=1407314 n_act=41 n_pre=25 n_req=1395 n_rd=2050 n_write=370 bw_util=0.003433
n_activity=15314 dram_eff=0.3161
bk0: 130a 1408824i bk1: 128a 1408695i bk2: 128a 1408810i bk3: 128a 1408723i bk4: 128a 1408932i bk5: 128a 1408879i bk6: 128a 1409486i bk7: 128a 1409467i bk8: 128a 1409496i bk9: 128a 1409488i bk10: 128a 1409078i bk11: 128a 1408830i bk12: 128a 1408748i bk13: 128a 1408632i bk14: 128a 1408773i bk15: 128a 1408685i 
dram_util_bins: 0 0 0 0 0 0 0 0 0 0
dram_eff_bins: 0 0 0 0 0 0 0 0 0 0
mrqq: max=10 avg=0.00538587
Memory Partition 4: 
Cache L2_bank_008:
MSHR contents

Cache L2_bank_009:
MSHR contents

In Dram Latency Queue (total = 0): 
DRAM[4]: 16 bks, busW=4 BL=8 CL=12, tRRD=2 tCCD=6, tRCD=12 tRAS=28 tRP=12 tRC=40
n_cmd=1409800 n_nop=1407313 n_act=42 n_pre=26 n_req=1395 n_rd=2048 n_write=371 bw_util=0.003432
n_activity=15373 dram_eff=0.3147
bk0: 128a 1408709i bk1: 128a 1408632i bk2: 128a 1408832i bk3: 128a 1408578i bk4: 128a 1408762i bk5: 128a 1408721i bk6: 128a 1409310i bk7: 128a 1409263i bk8: 128a 1409463i bk9: 128a 1409484i bk10: 128a 1408888i bk11: 128a 1408927i bk12: 128a 1408743i bk13: 128a 1408731i bk14: 128a 1408851i bk15: 128a 1408724i 
dram_util_bins: 0 0 0 0 0 0 0 0 0 0
dram_eff_bins: 0 0 0 0 0 0 0 0 0 0
mrqq: max=16 avg=0.0070088
Memory Partition 5: 
Cache L2_bank_010:
MSHR contents

Cache L2_bank_011:
MSHR contents

In Dram Latency Queue (total = 0): 
DRAM[5]: 16 bks, busW=4 BL=8 CL=12, tRRD=2 tCCD=6, tRCD=12 tRAS=28 tRP=12 tRC=40
n_cmd=1409800 n_nop=1407315 n_act=40 n_pre=24 n_req=1397 n_rd=2048 n_write=373 bw_util=0.003435
n_activity=15397 dram_eff=0.3145
bk0: 128a 1408770i bk1: 128a 1408851i bk2: 128a 1408832i bk3: 128a 1408708i bk4: 128a 1408948i bk5: 128a 1408907i bk6: 128a 1409492i bk7: 128a 1409475i bk8: 128a 1409492i bk9: 128a 1409487i bk10: 128a 1408870i bk11: 128a 1408872i bk12: 128a 1408699i bk13: 128a 1408690i bk14: 128a 1408820i bk15: 128a 1408724i 
dram_util_bins: 0 0 0 0 0 0 0 0 0 0
dram_eff_bins: 0 0 0 0 0 0 0 0 0 0
mrqq: max=13 avg=0.00582636

========= L2 cache stats =========
L2_cache_bank[0]: Access = 38451, Miss = 515, Miss_rate = 0.013, Pending_hits = 71, Reservation_fails = 479
L2_cache_bank[1]: Access = 38266, Miss = 512, Miss_rate = 0.013, Pending_hits = 62, Reservation_fails = 84
L2_cache_bank[2]: Access = 21524, Miss = 514, Miss_rate = 0.024, Pending_hits = 38, Reservation_fails = 113
L2_cache_bank[3]: Access = 21359, Miss = 512, Miss_rate = 0.024, Pending_hits = 35, Reservation_fails = 0
L2_cache_bank[4]: Access = 38442, Miss = 514, Miss_rate = 0.013, Pending_hits = 69, Reservation_fails = 159
L2_cache_bank[5]: Access = 38399, Miss = 512, Miss_rate = 0.013, Pending_hits = 52, Reservation_fails = 109
L2_cache_bank[6]: Access = 21520, Miss = 513, Miss_rate = 0.024, Pending_hits = 35, Reservation_fails = 0
L2_cache_bank[7]: Access = 21383, Miss = 512, Miss_rate = 0.024, Pending_hits = 30, Reservation_fails = 0
L2_cache_bank[8]: Access = 38260, Miss = 512, Miss_rate = 0.013, Pending_hits = 56, Reservation_fails = 71
L2_cache_bank[9]: Access = 38394, Miss = 512, Miss_rate = 0.013, Pending_hits = 54, Reservation_fails = 110
L2_cache_bank[10]: Access = 21349, Miss = 512, Miss_rate = 0.024, Pending_hits = 35, Reservation_fails = 0
L2_cache_bank[11]: Access = 21386, Miss = 512, Miss_rate = 0.024, Pending_hits = 30, Reservation_fails = 0
L2_total_cache_accesses = 358733
L2_total_cache_misses = 6152
L2_total_cache_miss_rate = 0.0171
L2_total_cache_pending_hits = 567
L2_total_cache_reservation_fails = 1125
L2_total_cache_breakdown:
	L2_cache_stats_breakdown[GLOBAL_ACC_R][HIT] = 337765
	L2_cache_stats_breakdown[GLOBAL_ACC_R][HIT_RESERVED] = 368
	L2_cache_stats_breakdown[GLOBAL_ACC_R][MISS] = 4096
	L2_cache_stats_breakdown[GLOBAL_ACC_R][RESERVATION_FAIL] = 635
	L2_cache_stats_breakdown[CONST_ACC_R][HIT] = 11
	L2_cache_stats_breakdown[CONST_ACC_R][HIT_RESERVED] = 3
	L2_cache_stats_breakdown[CONST_ACC_R][MISS] = 1
	L2_cache_stats_breakdown[CONST_ACC_R][RESERVATION_FAIL] = 109
	L2_cache_stats_breakdown[GLOBAL_ACC_W][HIT] = 14155
	L2_cache_stats_breakdown[GLOBAL_ACC_W][HIT_RESERVED] = 181
	L2_cache_stats_breakdown[GLOBAL_ACC_W][MISS] = 2048
	L2_cache_stats_breakdown[INST_ACC_R][HIT] = 83
	L2_cache_stats_breakdown[INST_ACC_R][HIT_RESERVED] = 15
	L2_cache_stats_breakdown[INST_ACC_R][MISS] = 7
	L2_cache_stats_breakdown[INST_ACC_R][RESERVATION_FAIL] = 381
L2_cache_data_port_util = 0.107
L2_cache_fill_port_util = 0.002

icnt_total_pkts_mem_to_simt=1728099
icnt_total_pkts_simt_to_mem=375117
LD_mem_lat_dist  0 0 0 0 0 0 0 0 0 0 0 0 0 0 0 0 0 0 0 0 0 0 0 0 0 0 0
ST_mem_lat_dist  0 0 0 0 0 0 0 0 0 0 0 0 0 0 0 0 0 0 0 0 0 0 0 0 0 0 0
----------------------------Interconnect-DETAILS--------------------------------
Class 0:
Packet latency average = 20.681
	minimum = 6
	maximum = 523
Network latency average = 18.0231
	minimum = 6
	maximum = 486
Slowest packet = 2141
Flit latency average = 19.496
	minimum = 6
	maximum = 486
Slowest flit = 5503
Fragmentation average = 0
	minimum = 0
	maximum = 0
Injected packet rate average = 0.0248802
	minimum = 0.0199891 (at node 25)
	maximum = 0.0360018 (at node 15)
Accepted packet rate average = 0.0248802
	minimum = 0.0199891 (at node 25)
	maximum = 0.0360018 (at node 15)
Injected flit rate average = 0.072935
	minimum = 0.02177 (at node 14)
	maximum = 0.174887 (at node 15)
Accepted flit rate average= 0.072935
	minimum = 0.0212775 (at node 25)
	maximum = 0.114913 (at node 3)
Injected packet length average = 2.93145
Accepted packet length average = 2.93145
Total in-flight flits = 0 (0 measured)
====== Overall Traffic Statistics ======
====== Traffic class 0 ======
Packet latency average = 20.681 (1 samples)
	minimum = 6 (1 samples)
	maximum = 523 (1 samples)
Network latency average = 18.0231 (1 samples)
	minimum = 6 (1 samples)
	maximum = 486 (1 samples)
Flit latency average = 19.496 (1 samples)
	minimum = 6 (1 samples)
	maximum = 486 (1 samples)
Fragmentation average = 0 (1 samples)
	minimum = 0 (1 samples)
	maximum = 0 (1 samples)
Injected packet rate average = 0.0248802 (1 samples)
	minimum = 0.0199891 (1 samples)
	maximum = 0.0360018 (1 samples)
Accepted packet rate average = 0.0248802 (1 samples)
	minimum = 0.0199891 (1 samples)
	maximum = 0.0360018 (1 samples)
Injected flit rate average = 0.072935 (1 samples)
	minimum = 0.02177 (1 samples)
	maximum = 0.174887 (1 samples)
Accepted flit rate average = 0.072935 (1 samples)
	minimum = 0.0212775 (1 samples)
	maximum = 0.114913 (1 samples)
Injected packet size average = 2.93145 (1 samples)
Accepted packet size average = 2.93145 (1 samples)
Hops average = 1 (1 samples)
----------------------------END-of-Interconnect-DETAILS-------------------------


gpgpu_simulation_time = 0 days, 0 hrs, 13 min, 24 sec (804 sec)
gpgpu_simulation_rate = 682096 (inst/sec)
gpgpu_simulation_rate = 1328 (cycle/sec)
The GPU Elapsed Time:803.878715 Sec.
The CPU Elapsed Time:0.414761 Sec.
Verifying
Verify Success!!
