

        *** GPGPU-Sim Simulator Version 3.2.2  [build 0] ***


GPGPU-Sim PTX: simulation mode 0 (can change with PTX_SIM_MODE_FUNC environment variable:
               1=functional simulation only, 0=detailed performance simulator)
GPGPU-Sim PTX: overriding embedded ptx with ptx file (PTX_SIM_USE_PTX_FILE is set)
DEBUG2 File name parsing = test.ptx
GPGPU-Sim: Configuration options:

-network_mode                           1 # Interconnection network mode
-inter_config_file   config_fermi_islip.icnt # Interconnection network config file
-gpgpu_ptx_use_cuobjdump                    1 # Use cuobjdump to extract ptx and sass from binaries
-gpgpu_experimental_lib_support                    0 # Try to extract code from cuda libraries [Broken because of unknown cudaGetExportTable]
-gpgpu_ptx_convert_to_ptxplus                    0 # Convert SASS (native ISA) to ptxplus and run ptxplus
-gpgpu_ptx_force_max_capability                   20 # Force maximum compute capability
-gpgpu_ptx_inst_debug_to_file                    0 # Dump executed instructions' debug information to file
-gpgpu_ptx_inst_debug_file       inst_debug.txt # Executed instructions' debug output file
-gpgpu_ptx_inst_debug_thread_uid                    1 # Thread UID for executed instructions' debug output
-gpgpu_simd_model                       1 # 1 = post-dominator
-gpgpu_shader_core_pipeline              1536:32 # shader core pipeline config, i.e., {<nthread>:<warpsize>}
-gpgpu_tex_cache:l1  4:128:24,L:R:m:N:L,F:128:4,128:2 # per-shader L1 texture cache  (READ-ONLY) config  {<nsets>:<bsize>:<assoc>,<rep>:<wr>:<alloc>:<wr_alloc>,<mshr>:<N>:<merge>,<mq>:<rf>}
-gpgpu_const_cache:l1 64:64:2,L:R:f:N:L,A:2:32,4 # per-shader L1 constant memory cache  (READ-ONLY) config  {<nsets>:<bsize>:<assoc>,<rep>:<wr>:<alloc>:<wr_alloc>,<mshr>:<N>:<merge>,<mq>} 
-gpgpu_cache:il1     4:128:4,L:R:f:N:L,A:2:32,4 # shader L1 instruction cache config  {<nsets>:<bsize>:<assoc>,<rep>:<wr>:<alloc>:<wr_alloc>,<mshr>:<N>:<merge>,<mq>} 
-gpgpu_cache:dl1     32:128:4,L:L:m:N:H,A:32:8,8 # per-shader L1 data cache config  {<nsets>:<bsize>:<assoc>,<rep>:<wr>:<alloc>:<wr_alloc>,<mshr>:<N>:<merge>,<mq> | none}
-gpgpu_cache:dl1PrefL1                 none # per-shader L1 data cache config  {<nsets>:<bsize>:<assoc>,<rep>:<wr>:<alloc>:<wr_alloc>,<mshr>:<N>:<merge>,<mq> | none}
-gpgpu_cache:dl1PreShared                 none # per-shader L1 data cache config  {<nsets>:<bsize>:<assoc>,<rep>:<wr>:<alloc>:<wr_alloc>,<mshr>:<N>:<merge>,<mq> | none}
-gmem_skip_L1D                          0 # global memory access skip L1D cache (implements -Xptxas -dlcm=cg, default=no skip)
-gpgpu_perfect_mem                      0 # enable perfect memory mode (no cache miss)
-n_regfile_gating_group                    4 # group of lanes that should be read/written together)
-gpgpu_clock_gated_reg_file                    0 # enable clock gated reg file for power calculations
-gpgpu_clock_gated_lanes                    0 # enable clock gated lanes for power calculations
-gpgpu_shader_registers                32768 # Number of registers per shader core. Limits number of concurrent CTAs. (default 8192)
-gpgpu_shader_cta                       8 # Maximum number of concurrent CTAs in shader (default 8)
-gpgpu_num_cta_barriers                   16 # Maximum number of named barriers per CTA (default 16)
-gpgpu_n_clusters                      15 # number of processing clusters
-gpgpu_n_cores_per_cluster                    1 # number of simd cores per cluster
-gpgpu_n_cluster_ejection_buffer_size                    8 # number of packets in ejection buffer
-gpgpu_n_ldst_response_buffer_size                    2 # number of response packets in ld/st unit ejection buffer
-gpgpu_shmem_size                   16384 # Size of shared memory per shader core (default 16kB)
-gpgpu_shmem_size                   49152 # Size of shared memory per shader core (default 16kB)
-gpgpu_shmem_size_PrefL1                16384 # Size of shared memory per shader core (default 16kB)
-gpgpu_shmem_size_PrefShared                16384 # Size of shared memory per shader core (default 16kB)
-gpgpu_shmem_num_banks                   32 # Number of banks in the shared memory in each shader core (default 16)
-gpgpu_shmem_limited_broadcast                    0 # Limit shared memory to do one broadcast per cycle (default on)
-gpgpu_shmem_warp_parts                    1 # Number of portions a warp is divided into for shared memory bank conflict check 
-gpgpu_warpdistro_shader                   -1 # Specify which shader core to collect the warp size distribution from
-gpgpu_warp_issue_shader                    0 # Specify which shader core to collect the warp issue distribution from
-gpgpu_local_mem_map                    1 # Mapping from local memory space address to simulated GPU physical address space (default = enabled)
-gpgpu_num_reg_banks                   16 # Number of register banks (default = 8)
-gpgpu_reg_bank_use_warp_id                    0 # Use warp ID in mapping registers to banks (default = off)
-gpgpu_operand_collector_num_units_sp                    6 # number of collector units (default = 4)
-gpgpu_operand_collector_num_units_sfu                    8 # number of collector units (default = 4)
-gpgpu_operand_collector_num_units_mem                    2 # number of collector units (default = 2)
-gpgpu_operand_collector_num_units_gen                    0 # number of collector units (default = 0)
-gpgpu_operand_collector_num_in_ports_sp                    2 # number of collector unit in ports (default = 1)
-gpgpu_operand_collector_num_in_ports_sfu                    1 # number of collector unit in ports (default = 1)
-gpgpu_operand_collector_num_in_ports_mem                    1 # number of collector unit in ports (default = 1)
-gpgpu_operand_collector_num_in_ports_gen                    0 # number of collector unit in ports (default = 0)
-gpgpu_operand_collector_num_out_ports_sp                    2 # number of collector unit in ports (default = 1)
-gpgpu_operand_collector_num_out_ports_sfu                    1 # number of collector unit in ports (default = 1)
-gpgpu_operand_collector_num_out_ports_mem                    1 # number of collector unit in ports (default = 1)
-gpgpu_operand_collector_num_out_ports_gen                    0 # number of collector unit in ports (default = 0)
-gpgpu_coalesce_arch                   13 # Coalescing arch (default = 13, anything else is off for now)
-gpgpu_num_sched_per_core                    2 # Number of warp schedulers per core
-gpgpu_max_insn_issue_per_warp                    1 # Max number of instructions that can be issued per warp in one cycle by scheduler
-gpgpu_simt_core_sim_order                    1 # Select the simulation order of cores in a cluster (0=Fix, 1=Round-Robin)
-gpgpu_pipeline_widths        2,1,1,2,1,1,2 # Pipeline widths ID_OC_SP,ID_OC_SFU,ID_OC_MEM,OC_EX_SP,OC_EX_SFU,OC_EX_MEM,EX_WB
-gpgpu_num_sp_units                     2 # Number of SP units (default=1)
-gpgpu_num_sfu_units                    1 # Number of SF units (default=1)
-gpgpu_num_mem_units                    1 # Number if ldst units (default=1) WARNING: not hooked up to anything
-gpgpu_scheduler                      gto # Scheduler configuration: < lrr | gto | two_level_active > If two_level_active:<num_active_warps>:<inner_prioritization>:<outer_prioritization>For complete list of prioritization values see shader.h enum scheduler_prioritization_typeDefault: gto
-gpgpu_dram_scheduler                    1 # 0 = fifo, 1 = FR-FCFS (defaul)
-gpgpu_dram_partition_queues              8:8:8:8 # i2$:$2d:d2$:$2i
-l2_ideal                               0 # Use a ideal L2 cache that always hit
-gpgpu_cache:dl2     64:128:8,L:B:m:W:L,A:32:4,4:0,32 # unified banked L2 data cache config  {<nsets>:<bsize>:<assoc>,<rep>:<wr>:<alloc>:<wr_alloc>,<mshr>:<N>:<merge>,<mq>}
-gpgpu_cache:dl2_texture_only                    0 # L2 cache used for texture only
-gpgpu_n_mem                            6 # number of memory modules (e.g. memory controllers) in gpu
-gpgpu_n_sub_partition_per_mchannel                    2 # number of memory subpartition in each memory module
-gpgpu_n_mem_per_ctrlr                    2 # number of memory chips per memory controller
-gpgpu_memlatency_stat                   14 # track and display latency statistics 0x2 enables MC, 0x4 enables queue logs
-gpgpu_frfcfs_dram_sched_queue_size                   16 # 0 = unlimited (default); # entries per chip
-gpgpu_dram_return_queue_size                  116 # 0 = unlimited (default); # entries per chip
-gpgpu_dram_buswidth                    4 # default = 4 bytes (8 bytes per cycle at DDR)
-gpgpu_dram_burst_length                    8 # Burst length of each DRAM request (default = 4 data bus cycle)
-dram_data_command_freq_ratio                    4 # Frequency ratio between DRAM data bus and command bus (default = 2 times, i.e. DDR)
-gpgpu_dram_timing_opt nbk=16:CCD=2:RRD=6:RCD=12:RAS=28:RP=12:RC=40: CL=12:WL=4:CDLR=5:WR=12:nbkgrp=4:CCDL=3:RTPL=2 # DRAM timing parameters = {nbk:tCCD:tRRD:tRCD:tRAS:tRP:tRC:CL:WL:tCDLR:tWR:nbkgrp:tCCDL:tRTPL}
-rop_latency                          120 # ROP queue latency (default 85)
-dram_latency                         100 # DRAM latency (default 30)
-gpgpu_mem_addr_mapping dramid@8;00000000.00000000.00000000.00000000.0000RRRR.RRRRRRRR.BBBCCCCB.CCSSSSSS # mapping memory address to dram model {dramid@<start bit>;<memory address map>}
-gpgpu_mem_addr_test                    0 # run sweep test to check address mapping for aliased address
-gpgpu_mem_address_mask                    1 # 0 = old addressing mask, 1 = new addressing mask, 2 = new add. mask + flipped bank sel and chip sel bits
-gpuwattch_xml_file  gpuwattch_gtx480.xml # GPUWattch XML file
-power_simulation_enabled                    1 # Turn on power simulator (1=On, 0=Off)
-power_per_cycle_dump                    0 # Dump detailed power output each cycle
-power_trace_enabled                    0 # produce a file for the power trace (1=On, 0=Off)
-power_trace_zlevel                     6 # Compression level of the power trace output log (0=no comp, 9=highest)
-steady_power_levels_enabled                    0 # produce a file for the steady power levels (1=On, 0=Off)
-steady_state_definition                  8:4 # allowed deviation:number of samples
-gpgpu_max_cycle                        0 # terminates gpu simulation early (0 = no limit)
-gpgpu_max_insn                         0 # terminates gpu simulation early (0 = no limit)
-gpgpu_max_cta                          0 # terminates gpu simulation early (0 = no limit)
-gpgpu_runtime_stat                   500 # display runtime statistics such as dram utilization {<freq>:<flag>}
-liveness_message_freq                    1 # Minimum number of seconds between simulation liveness messages (0 = always print)
-gpgpu_flush_l1_cache                    0 # Flush L1 cache at the end of each kernel call
-gpgpu_flush_l2_cache                    0 # Flush L2 cache at the end of each kernel call
-gpgpu_deadlock_detect                    1 # Stop the simulation at deadlock (1=on (default), 0=off)
-gpgpu_ptx_instruction_classification                    0 # if enabled will classify ptx instruction types per kernel (Max 255 kernels now)
-gpgpu_ptx_sim_mode                     0 # Select between Performance (default) or Functional simulation (1)
-gpgpu_clock_domains 700.0:700.0:700.0:924.0 # Clock Domain Frequencies in MhZ {<Core Clock>:<ICNT Clock>:<L2 Clock>:<DRAM Clock>}
-gpgpu_max_concurrent_kernel                    8 # maximum kernels that can run concurrently on GPU
-gpgpu_cflog_interval                    0 # Interval between each snapshot in control flow logger
-visualizer_enabled                     0 # Turn on visualizer output (1=On, 0=Off)
-visualizer_outputfile                 NULL # Specifies the output log file for visualizer
-visualizer_zlevel                      6 # Compression level of the visualizer output log (0=no comp, 9=highest)
-trace_enabled                          0 # Turn on traces
-trace_components                    none # comma seperated list of traces to enable. Complete list found in trace_streams.tup. Default none
-trace_sampling_core                    0 # The core which is printed using CORE_DPRINTF. Default 0
-trace_sampling_memory_partition                   -1 # The memory partition which is printed using MEMPART_DPRINTF. Default -1 (i.e. all)
-enable_ptx_file_line_stats                    1 # Turn on PTX source line statistic profiling. (1 = On)
-ptx_line_stats_filename gpgpu_inst_stats.txt # Output file for PTX source line statistics.
-save_embedded_ptx                      0 # saves ptx files embedded in binary as <n>.ptx
-keep                                   0 # keep intermediate files created by GPGPU-Sim when interfacing with external programs
-gpgpu_ptx_save_converted_ptxplus                    0 # Saved converted ptxplus to a file
-ptx_opcode_latency_int         4,13,4,5,145 # Opcode latencies for integers <ADD,MAX,MUL,MAD,DIV>Default 1,1,19,25,145
-ptx_opcode_latency_fp          4,13,4,5,39 # Opcode latencies for single precision floating points <ADD,MAX,MUL,MAD,DIV>Default 1,1,1,1,30
-ptx_opcode_latency_dp         8,19,8,8,330 # Opcode latencies for double precision floating points <ADD,MAX,MUL,MAD,DIV>Default 8,8,8,8,335
-ptx_opcode_initiation_int            1,2,2,1,8 # Opcode initiation intervals for integers <ADD,MAX,MUL,MAD,DIV>Default 1,1,4,4,32
-ptx_opcode_initiation_fp            1,2,1,1,4 # Opcode initiation intervals for single precision floating points <ADD,MAX,MUL,MAD,DIV>Default 1,1,1,1,5
-ptx_opcode_initiation_dp         8,16,8,8,130 # Opcode initiation intervals for double precision floating points <ADD,MAX,MUL,MAD,DIV>Default 8,8,8,8,130
DRAM Timing Options:
nbk                                    16 # number of banks
CCD                                     2 # column to column delay
RRD                                     6 # minimal delay between activation of rows in different banks
RCD                                    12 # row to column delay
RAS                                    28 # time needed to activate row
RP                                     12 # time needed to precharge (deactivate) row
RC                                     40 # row cycle time
CDLR                                    5 # switching from write to read (changes tWTR)
WR                                     12 # last data-in to row precharge
CL                                     12 # CAS latency
WL                                      4 # Write latency
nbkgrp                                  4 # number of bank groups
CCDL                                    3 # column to column delay between accesses to different bank groups
RTPL                                    2 # read to precharge delay between accesses to different bank groups
Total number of memory sub partition = 12
addr_dec_mask[CHIP]  = 0000000000000000 	high:64 low:0
addr_dec_mask[BK]    = 000000000000e100 	high:16 low:8
addr_dec_mask[ROW]   = 000000000fff0000 	high:28 low:16
addr_dec_mask[COL]   = 0000000000001eff 	high:13 low:0
addr_dec_mask[BURST] = 000000000000003f 	high:6 low:0
sub_partition_id_mask = 0000000000000100
GPGPU-Sim uArch: clock freqs: 700000000.000000:700000000.000000:700000000.000000:924000000.000000
GPGPU-Sim uArch: clock periods: 0.00000000142857142857:0.00000000142857142857:0.00000000142857142857:0.00000000108225108225
*** Initializing Memory Statistics ***
GPGPU-Sim uArch: interconnect node map (shaderID+MemID to icntID)
GPGPU-Sim uArch: Memory nodes ID start from index: 15
GPGPU-Sim uArch:    0   1   2   3   4
GPGPU-Sim uArch:    5   6   7   8   9
GPGPU-Sim uArch:   10  11  12  13  14
GPGPU-Sim uArch:   15  16  17  18  19
GPGPU-Sim uArch:   20  21  22  23  24
GPGPU-Sim uArch:   25  26
GPGPU-Sim uArch: interconnect node reverse map (icntID to shaderID+MemID)
GPGPU-Sim uArch: Memory nodes start from ID: 15
GPGPU-Sim uArch:    0   1   2   3   4
GPGPU-Sim uArch:    5   6   7   8   9
GPGPU-Sim uArch:   10  11  12  13  14
GPGPU-Sim uArch:   15  16  17  18  19
GPGPU-Sim uArch:   20  21  22  23  24
GPGPU-Sim uArch:   25  26
6301c61be597335677a684db17935111  /home/min/a/gupta286/ece695_ftc/gpgpusim-workloads/matrixMulOpt/matrixMul
GPGPU-Sim uArch: performance model initialization complete.
GPGPU-Sim PTX: __cudaRegisterFatBinary, fat_cubin_handle = 1, filename=matrixMul.cu
self exe links to: /home/min/a/gupta286/ece695_ftc/gpgpusim-workloads/matrixMulOpt/matrixMul
Running md5sum using "md5sum /home/min/a/gupta286/ece695_ftc/gpgpusim-workloads/matrixMulOpt/matrixMul "
Running cuobjdump using "$CUDA_INSTALL_PATH/bin/cuobjdump -ptx -elf -sass /home/min/a/gupta286/ece695_ftc/gpgpusim-workloads/matrixMulOpt/matrixMul > _cuobjdump_complete_output_Ns8Znw"
Parsing file _cuobjdump_complete_output_Ns8Znw
######### cuobjdump parser ########
## Adding new section ELF
Adding arch: sm_20
Adding identifier: matrixMul.cu
## Adding new section PTX
Adding ptx filename: _cuobjdump_1.ptx
Adding arch: sm_20
Adding identifier: matrixMul.cu
Done parsing!!!
GPGPU-Sim PTX: __cudaRegisterFunction _Z12matrixMulGPUPiS_S_i : hostFun 0x0x401226, fat_cubin_handle = 1
DEBUG File name parsing 2 = test.ptx
GPGPU-Sim PTX: overriding embedded ptx with 'test.ptx' (PTX_SIM_USE_PTX_FILE is set)
GPGPU-Sim PTX: allocating shared region for "__cuda_local_var_16200_38_non_const_As" from 0x0 to 0x400 (shared memory space)
GPGPU-Sim PTX: allocating shared region for "__cuda_local_var_16204_38_non_const_Bs" from 0x400 to 0x800 (shared memory space)
GPGPU-Sim PTX: instruction assembly for function '_Z12matrixMulGPUPiS_S_i'...   done.
GPGPU-Sim PTX: finding reconvergence points for '_Z12matrixMulGPUPiS_S_i'...
GPGPU-Sim PTX: Finding dominators for '_Z12matrixMulGPUPiS_S_i'...
GPGPU-Sim PTX: Finding immediate dominators for '_Z12matrixMulGPUPiS_S_i'...
GPGPU-Sim PTX: Finding postdominators for '_Z12matrixMulGPUPiS_S_i'...
GPGPU-Sim PTX: Finding immediate postdominators for '_Z12matrixMulGPUPiS_S_i'...
GPGPU-Sim PTX: pre-decoding instructions for '_Z12matrixMulGPUPiS_S_i'...
GPGPU-Sim PTX: reconvergence points for _Z12matrixMulGPUPiS_S_i...
GPGPU-Sim PTX:  1 (potential) branch divergence @  PC=0x078 (_1.ptx:52) @%p1 bra BB0_3;
GPGPU-Sim PTX:    immediate post dominator      @  PC=0x308 (_1.ptx:152) mov.u32 %r122, %ctaid.y;
GPGPU-Sim PTX:  2 (potential) branch divergence @  PC=0x2f0 (_1.ptx:144) @%p2 bra BB0_2;
GPGPU-Sim PTX:    immediate post dominator      @  PC=0x2f8 (_1.ptx:145) bra.uni BB0_4;
GPGPU-Sim PTX:  3 (potential) branch divergence @  PC=0x2f8 (_1.ptx:145) bra.uni BB0_4;
GPGPU-Sim PTX:    immediate post dominator      @  PC=0x308 (_1.ptx:152) mov.u32 %r122, %ctaid.y;
GPGPU-Sim PTX: ... end of reconvergence points for _Z12matrixMulGPUPiS_S_i
GPGPU-Sim PTX: ... done pre-decoding instructions for '_Z12matrixMulGPUPiS_S_i'.
GPGPU-Sim PTX: finished parsing EMBEDDED .ptx file _1.ptx
Adding _cuobjdump_1.ptx with cubin handle 1
GPGPU-Sim PTX: extracting embedded .ptx to temporary file "_ptx_1ose00"
Running: cat _ptx_1ose00 | sed 's/.version 1.5/.version 1.4/' | sed '/addk_k/d' | sed 's/_quadi//' | sed 's/, texmode_independent//' | sed 's/\(\.extern \.const\[1\] .b8 \w\+\)\[\]/\1\[1\]/' | sed 's/const\[.\]/const\[0\]/g' > _ptx2_feYXEv
GPGPU-Sim PTX: generating ptxinfo using "$CUDA_INSTALL_PATH/bin/ptxas --gpu-name=sm_20 -v _ptx2_feYXEv --output-file  /dev/null 2> _ptx_1ose00info"
GPGPU-Sim PTX: Kernel '_Z12matrixMulGPUPiS_S_i' : regs=26, lmem=0, smem=2048, cmem=60
GPGPU-Sim PTX: removing ptxinfo using "rm -f _ptx_1ose00 _ptx2_feYXEv _ptx_1ose00info"
GPGPU-Sim PTX: loading globals with explicit initializers... 
GPGPU-Sim PTX: finished loading globals (0 bytes total).
GPGPU-Sim PTX: loading constants with explicit initializers...  done.

GPGPU-Sim PTX: cudaLaunch for 0x0x401226 (mode=performance simulation) on stream 0
GPGPU-Sim PTX: pushing kernel '_Z12matrixMulGPUPiS_S_i' to stream 0, gridDim= (32,32,1) blockDim = (16,16,1) 
kernel '_Z12matrixMulGPUPiS_S_i' transfer to GPU hardware scheduler
GPGPU-Sim uArch: Shader 1 bind to kernel 1 '_Z12matrixMulGPUPiS_S_i'
GPGPU-Sim uArch: CTA/core = 4, limited by: regs
GPGPU-Sim uArch: core:  1, cta: 0 initialized @(1,0)
GPGPU-Sim uArch: Shader 2 bind to kernel 1 '_Z12matrixMulGPUPiS_S_i'
GPGPU-Sim uArch: core:  2, cta: 0 initialized @(1,0)
GPGPU-Sim uArch: Shader 3 bind to kernel 1 '_Z12matrixMulGPUPiS_S_i'
GPGPU-Sim uArch: core:  3, cta: 0 initialized @(1,0)
GPGPU-Sim uArch: Shader 4 bind to kernel 1 '_Z12matrixMulGPUPiS_S_i'
GPGPU-Sim uArch: core:  4, cta: 0 initialized @(1,0)
GPGPU-Sim uArch: Shader 5 bind to kernel 1 '_Z12matrixMulGPUPiS_S_i'
GPGPU-Sim uArch: core:  5, cta: 0 initialized @(1,0)
GPGPU-Sim uArch: Shader 6 bind to kernel 1 '_Z12matrixMulGPUPiS_S_i'
GPGPU-Sim uArch: core:  6, cta: 0 initialized @(1,0)
GPGPU-Sim uArch: Shader 7 bind to kernel 1 '_Z12matrixMulGPUPiS_S_i'
GPGPU-Sim uArch: core:  7, cta: 0 initialized @(1,0)
GPGPU-Sim uArch: Shader 8 bind to kernel 1 '_Z12matrixMulGPUPiS_S_i'
GPGPU-Sim uArch: core:  8, cta: 0 initialized @(1,0)
GPGPU-Sim uArch: Shader 9 bind to kernel 1 '_Z12matrixMulGPUPiS_S_i'
GPGPU-Sim uArch: core:  9, cta: 0 initialized @(1,0)
GPGPU-Sim uArch: Shader 10 bind to kernel 1 '_Z12matrixMulGPUPiS_S_i'
GPGPU-Sim uArch: core: 10, cta: 0 initialized @(1,0)
GPGPU-Sim uArch: Shader 11 bind to kernel 1 '_Z12matrixMulGPUPiS_S_i'
GPGPU-Sim uArch: core: 11, cta: 0 initialized @(1,0)
GPGPU-Sim uArch: Shader 12 bind to kernel 1 '_Z12matrixMulGPUPiS_S_i'
GPGPU-Sim uArch: core: 12, cta: 0 initialized @(1,0)
GPGPU-Sim uArch: Shader 13 bind to kernel 1 '_Z12matrixMulGPUPiS_S_i'
GPGPU-Sim uArch: core: 13, cta: 0 initialized @(1,0)
GPGPU-Sim uArch: Shader 14 bind to kernel 1 '_Z12matrixMulGPUPiS_S_i'
GPGPU-Sim uArch: core: 14, cta: 0 initialized @(1,0)
GPGPU-Sim uArch: Shader 0 bind to kernel 1 '_Z12matrixMulGPUPiS_S_i'
GPGPU-Sim uArch: core:  0, cta: 0 initialized @(1,0)
GPGPU-Sim uArch: core:  1, cta: 1 initialized @(2,0)
GPGPU-Sim uArch: core:  2, cta: 1 initialized @(2,0)
GPGPU-Sim uArch: core:  3, cta: 1 initialized @(2,0)
GPGPU-Sim uArch: core:  4, cta: 1 initialized @(2,0)
GPGPU-Sim uArch: core:  5, cta: 1 initialized @(2,0)
GPGPU-Sim uArch: core:  6, cta: 1 initialized @(2,0)
GPGPU-Sim uArch: core:  7, cta: 1 initialized @(2,0)
GPGPU-Sim uArch: core:  8, cta: 1 initialized @(2,0)
GPGPU-Sim uArch: core:  9, cta: 1 initialized @(2,0)
GPGPU-Sim uArch: core: 10, cta: 1 initialized @(2,0)
GPGPU-Sim uArch: core: 11, cta: 1 initialized @(2,0)
GPGPU-Sim uArch: core: 12, cta: 1 initialized @(2,0)
GPGPU-Sim uArch: core: 13, cta: 1 initialized @(2,0)
GPGPU-Sim uArch: core: 14, cta: 1 initialized @(2,0)
GPGPU-Sim uArch: core:  0, cta: 1 initialized @(2,0)
GPGPU-Sim uArch: core:  1, cta: 2 initialized @(3,0)
GPGPU-Sim uArch: core:  2, cta: 2 initialized @(3,0)
GPGPU-Sim uArch: core:  3, cta: 2 initialized @(3,0)
GPGPU-Sim uArch: core:  4, cta: 2 initialized @(3,0)
GPGPU-Sim uArch: core:  5, cta: 2 initialized @(3,0)
GPGPU-Sim uArch: core:  6, cta: 2 initialized @(3,0)
GPGPU-Sim uArch: core:  7, cta: 2 initialized @(3,0)
GPGPU-Sim uArch: core:  8, cta: 2 initialized @(3,0)
GPGPU-Sim uArch: core:  9, cta: 2 initialized @(3,0)
GPGPU-Sim uArch: core: 10, cta: 2 initialized @(3,0)
GPGPU-Sim uArch: core: 11, cta: 2 initialized @(3,0)
GPGPU-Sim uArch: core: 12, cta: 2 initialized @(3,0)
GPGPU-Sim uArch: core: 13, cta: 2 initialized @(3,0)
GPGPU-Sim uArch: core: 14, cta: 2 initialized @(3,0)
GPGPU-Sim uArch: core:  0, cta: 2 initialized @(3,0)
GPGPU-Sim uArch: core:  1, cta: 3 initialized @(4,0)
GPGPU-Sim uArch: core:  2, cta: 3 initialized @(4,0)
GPGPU-Sim uArch: core:  3, cta: 3 initialized @(4,0)
GPGPU-Sim uArch: core:  4, cta: 3 initialized @(4,0)
GPGPU-Sim uArch: core:  5, cta: 3 initialized @(4,0)
GPGPU-Sim uArch: core:  6, cta: 3 initialized @(4,0)
GPGPU-Sim uArch: core:  7, cta: 3 initialized @(4,0)
GPGPU-Sim uArch: core:  8, cta: 3 initialized @(4,0)
GPGPU-Sim uArch: core:  9, cta: 3 initialized @(4,0)
GPGPU-Sim uArch: core: 10, cta: 3 initialized @(4,0)
GPGPU-Sim uArch: core: 11, cta: 3 initialized @(4,0)
GPGPU-Sim uArch: core: 12, cta: 3 initialized @(4,0)
GPGPU-Sim uArch: core: 13, cta: 3 initialized @(4,0)
GPGPU-Sim uArch: core: 14, cta: 3 initialized @(4,0)
GPGPU-Sim uArch: core:  0, cta: 3 initialized @(4,0)
GPGPU-Sim uArch: cycles simulated: 500  inst.: 0 (ipc= 0.0) sim_rate=0 (inst/sec) elapsed = 0:0:00:01 / Fri Dec 16 02:54:52 2016
GPGPU-Sim PTX: 100000 instructions simulated : ctaid=(31,0,0) tid=(15,1,0)
GPGPU-Sim PTX: 200000 instructions simulated : ctaid=(21,1,0) tid=(15,13,0)
GPGPU-Sim PTX: 300000 instructions simulated : ctaid=(3,1,0) tid=(15,3,0)
GPGPU-Sim PTX: 400000 instructions simulated : ctaid=(21,0,0) tid=(15,15,0)
GPGPU-Sim PTX: 500000 instructions simulated : ctaid=(20,0,0) tid=(15,3,0)
GPGPU-Sim uArch: cycles simulated: 1500  inst.: 506880 (ipc=337.9) sim_rate=253440 (inst/sec) elapsed = 0:0:00:02 / Fri Dec 16 02:54:53 2016
GPGPU-Sim uArch: cycles simulated: 2500  inst.: 553504 (ipc=221.4) sim_rate=184501 (inst/sec) elapsed = 0:0:00:03 / Fri Dec 16 02:54:54 2016
GPGPU-Sim PTX: 600000 instructions simulated : ctaid=(24,0,0) tid=(15,7,0)
GPGPU-Sim PTX: 700000 instructions simulated : ctaid=(13,0,0) tid=(15,13,0)
GPGPU-Sim uArch: cycles simulated: 5000  inst.: 744832 (ipc=149.0) sim_rate=186208 (inst/sec) elapsed = 0:0:00:04 / Fri Dec 16 02:54:55 2016
GPGPU-Sim PTX: 800000 instructions simulated : ctaid=(13,0,0) tid=(15,9,0)
GPGPU-Sim PTX: 900000 instructions simulated : ctaid=(8,0,0) tid=(15,15,0)
GPGPU-Sim PTX: 1000000 instructions simulated : ctaid=(25,0,0) tid=(15,3,0)
GPGPU-Sim PTX: 1100000 instructions simulated : ctaid=(8,1,0) tid=(15,13,0)
GPGPU-Sim PTX: 1200000 instructions simulated : ctaid=(3,0,0) tid=(15,9,0)
GPGPU-Sim uArch: cycles simulated: 7500  inst.: 1206112 (ipc=160.8) sim_rate=241222 (inst/sec) elapsed = 0:0:00:05 / Fri Dec 16 02:54:56 2016
GPGPU-Sim PTX: 1300000 instructions simulated : ctaid=(26,0,0) tid=(15,7,0)
GPGPU-Sim PTX: 1400000 instructions simulated : ctaid=(1,1,0) tid=(15,11,0)
GPGPU-Sim PTX: 1500000 instructions simulated : ctaid=(23,0,0) tid=(15,9,0)
GPGPU-Sim PTX: 1600000 instructions simulated : ctaid=(23,0,0) tid=(15,3,0)
GPGPU-Sim PTX: 1700000 instructions simulated : ctaid=(15,0,0) tid=(15,5,0)
GPGPU-Sim uArch: cycles simulated: 10000  inst.: 1712352 (ipc=171.2) sim_rate=285392 (inst/sec) elapsed = 0:0:00:06 / Fri Dec 16 02:54:57 2016
GPGPU-Sim PTX: 1800000 instructions simulated : ctaid=(8,0,0) tid=(15,7,0)
GPGPU-Sim PTX: 1900000 instructions simulated : ctaid=(8,0,0) tid=(15,15,0)
GPGPU-Sim PTX: 2000000 instructions simulated : ctaid=(26,1,0) tid=(15,13,0)
GPGPU-Sim PTX: 2100000 instructions simulated : ctaid=(14,0,0) tid=(15,9,0)
GPGPU-Sim PTX: 2200000 instructions simulated : ctaid=(13,0,0) tid=(15,5,0)
GPGPU-Sim uArch: cycles simulated: 12500  inst.: 2196416 (ipc=175.7) sim_rate=313773 (inst/sec) elapsed = 0:0:00:07 / Fri Dec 16 02:54:58 2016
GPGPU-Sim PTX: 2300000 instructions simulated : ctaid=(1,0,0) tid=(15,7,0)
GPGPU-Sim PTX: 2400000 instructions simulated : ctaid=(11,1,0) tid=(15,9,0)
GPGPU-Sim PTX: 2500000 instructions simulated : ctaid=(20,0,0) tid=(15,3,0)
GPGPU-Sim PTX: 2600000 instructions simulated : ctaid=(11,1,0) tid=(15,13,0)
GPGPU-Sim PTX: 2700000 instructions simulated : ctaid=(4,0,0) tid=(15,7,0)
GPGPU-Sim uArch: cycles simulated: 15000  inst.: 2713632 (ipc=180.9) sim_rate=339204 (inst/sec) elapsed = 0:0:00:08 / Fri Dec 16 02:54:59 2016
GPGPU-Sim PTX: 2800000 instructions simulated : ctaid=(17,0,0) tid=(15,15,0)
GPGPU-Sim PTX: 2900000 instructions simulated : ctaid=(0,0,0) tid=(15,1,0)
GPGPU-Sim PTX: 3000000 instructions simulated : ctaid=(27,0,0) tid=(15,1,0)
GPGPU-Sim PTX: 3100000 instructions simulated : ctaid=(13,0,0) tid=(15,7,0)
GPGPU-Sim PTX: 3200000 instructions simulated : ctaid=(4,0,0) tid=(15,5,0)
GPGPU-Sim uArch: cycles simulated: 17500  inst.: 3205504 (ipc=183.2) sim_rate=356167 (inst/sec) elapsed = 0:0:00:09 / Fri Dec 16 02:55:00 2016
GPGPU-Sim PTX: 3300000 instructions simulated : ctaid=(8,0,0) tid=(15,15,0)
GPGPU-Sim PTX: 3400000 instructions simulated : ctaid=(26,0,0) tid=(15,1,0)
GPGPU-Sim PTX: 3500000 instructions simulated : ctaid=(2,1,0) tid=(15,15,0)
GPGPU-Sim PTX: 3600000 instructions simulated : ctaid=(3,0,0) tid=(15,3,0)
GPGPU-Sim PTX: 3700000 instructions simulated : ctaid=(1,0,0) tid=(15,9,0)
GPGPU-Sim uArch: cycles simulated: 20000  inst.: 3705344 (ipc=185.3) sim_rate=370534 (inst/sec) elapsed = 0:0:00:10 / Fri Dec 16 02:55:01 2016
GPGPU-Sim PTX: 3800000 instructions simulated : ctaid=(26,1,0) tid=(15,7,0)
GPGPU-Sim PTX: 3900000 instructions simulated : ctaid=(22,0,0) tid=(15,1,0)
GPGPU-Sim PTX: 4000000 instructions simulated : ctaid=(13,0,0) tid=(15,11,0)
GPGPU-Sim PTX: 4100000 instructions simulated : ctaid=(26,1,0) tid=(15,11,0)
GPGPU-Sim PTX: 4200000 instructions simulated : ctaid=(4,0,0) tid=(15,11,0)
GPGPU-Sim uArch: cycles simulated: 22500  inst.: 4210656 (ipc=187.1) sim_rate=382786 (inst/sec) elapsed = 0:0:00:11 / Fri Dec 16 02:55:02 2016
GPGPU-Sim PTX: 4300000 instructions simulated : ctaid=(27,0,0) tid=(15,7,0)
GPGPU-Sim PTX: 4400000 instructions simulated : ctaid=(6,0,0) tid=(15,13,0)
GPGPU-Sim PTX: 4500000 instructions simulated : ctaid=(22,1,0) tid=(15,1,0)
GPGPU-Sim PTX: 4600000 instructions simulated : ctaid=(20,0,0) tid=(15,1,0)
GPGPU-Sim PTX: 4700000 instructions simulated : ctaid=(1,0,0) tid=(15,11,0)
GPGPU-Sim uArch: cycles simulated: 25000  inst.: 4730528 (ipc=189.2) sim_rate=394210 (inst/sec) elapsed = 0:0:00:12 / Fri Dec 16 02:55:03 2016
GPGPU-Sim PTX: 4800000 instructions simulated : ctaid=(3,0,0) tid=(15,7,0)
GPGPU-Sim PTX: 4900000 instructions simulated : ctaid=(1,1,0) tid=(15,13,0)
GPGPU-Sim PTX: 5000000 instructions simulated : ctaid=(7,0,0) tid=(15,5,0)
GPGPU-Sim PTX: 5100000 instructions simulated : ctaid=(27,0,0) tid=(15,15,0)
GPGPU-Sim uArch: cycles simulated: 27000  inst.: 5129792 (ipc=190.0) sim_rate=394599 (inst/sec) elapsed = 0:0:00:13 / Fri Dec 16 02:55:04 2016
GPGPU-Sim PTX: 5200000 instructions simulated : ctaid=(14,0,0) tid=(15,11,0)
GPGPU-Sim PTX: 5300000 instructions simulated : ctaid=(4,0,0) tid=(15,7,0)
GPGPU-Sim PTX: 5400000 instructions simulated : ctaid=(1,0,0) tid=(15,5,0)
GPGPU-Sim PTX: 5500000 instructions simulated : ctaid=(15,0,0) tid=(15,7,0)
GPGPU-Sim PTX: 5600000 instructions simulated : ctaid=(11,0,0) tid=(15,7,0)
GPGPU-Sim uArch: cycles simulated: 29500  inst.: 5622144 (ipc=190.6) sim_rate=401581 (inst/sec) elapsed = 0:0:00:14 / Fri Dec 16 02:55:05 2016
GPGPU-Sim PTX: 5700000 instructions simulated : ctaid=(22,1,0) tid=(15,7,0)
GPGPU-Sim PTX: 5800000 instructions simulated : ctaid=(1,1,0) tid=(15,15,0)
GPGPU-Sim PTX: 5900000 instructions simulated : ctaid=(13,0,0) tid=(15,7,0)
GPGPU-Sim PTX: 6000000 instructions simulated : ctaid=(4,0,0) tid=(15,7,0)
GPGPU-Sim PTX: 6100000 instructions simulated : ctaid=(5,1,0) tid=(15,15,0)
GPGPU-Sim uArch: cycles simulated: 32000  inst.: 6132992 (ipc=191.7) sim_rate=408866 (inst/sec) elapsed = 0:0:00:15 / Fri Dec 16 02:55:06 2016
GPGPU-Sim PTX: 6200000 instructions simulated : ctaid=(14,0,0) tid=(15,13,0)
GPGPU-Sim PTX: 6300000 instructions simulated : ctaid=(1,0,0) tid=(15,3,0)
GPGPU-Sim PTX: 6400000 instructions simulated : ctaid=(5,0,0) tid=(15,11,0)
GPGPU-Sim PTX: 6500000 instructions simulated : ctaid=(4,0,0) tid=(15,15,0)
GPGPU-Sim PTX: 6600000 instructions simulated : ctaid=(7,0,0) tid=(15,3,0)
GPGPU-Sim uArch: cycles simulated: 34500  inst.: 6636032 (ipc=192.3) sim_rate=414752 (inst/sec) elapsed = 0:0:00:16 / Fri Dec 16 02:55:07 2016
GPGPU-Sim PTX: 6700000 instructions simulated : ctaid=(24,0,0) tid=(15,13,0)
GPGPU-Sim PTX: 6800000 instructions simulated : ctaid=(6,0,0) tid=(15,15,0)
GPGPU-Sim PTX: 6900000 instructions simulated : ctaid=(4,0,0) tid=(15,3,0)
GPGPU-Sim PTX: 7000000 instructions simulated : ctaid=(12,0,0) tid=(15,3,0)
GPGPU-Sim PTX: 7100000 instructions simulated : ctaid=(3,0,0) tid=(15,11,0)
GPGPU-Sim uArch: cycles simulated: 37000  inst.: 7130272 (ipc=192.7) sim_rate=419427 (inst/sec) elapsed = 0:0:00:17 / Fri Dec 16 02:55:08 2016
GPGPU-Sim PTX: 7200000 instructions simulated : ctaid=(13,0,0) tid=(15,3,0)
GPGPU-Sim PTX: 7300000 instructions simulated : ctaid=(30,0,0) tid=(15,3,0)
GPGPU-Sim PTX: 7400000 instructions simulated : ctaid=(12,0,0) tid=(15,13,0)
GPGPU-Sim PTX: 7500000 instructions simulated : ctaid=(7,0,0) tid=(15,5,0)
GPGPU-Sim PTX: 7600000 instructions simulated : ctaid=(19,0,0) tid=(15,11,0)
GPGPU-Sim uArch: cycles simulated: 39500  inst.: 7631776 (ipc=193.2) sim_rate=423987 (inst/sec) elapsed = 0:0:00:18 / Fri Dec 16 02:55:09 2016
GPGPU-Sim PTX: 7700000 instructions simulated : ctaid=(2,0,0) tid=(15,5,0)
GPGPU-Sim PTX: 7800000 instructions simulated : ctaid=(1,0,0) tid=(15,13,0)
GPGPU-Sim PTX: 7900000 instructions simulated : ctaid=(31,0,0) tid=(15,15,0)
GPGPU-Sim PTX: 8000000 instructions simulated : ctaid=(10,0,0) tid=(15,7,0)
GPGPU-Sim PTX: 8100000 instructions simulated : ctaid=(10,0,0) tid=(15,7,0)
GPGPU-Sim uArch: cycles simulated: 42000  inst.: 8129696 (ipc=193.6) sim_rate=427878 (inst/sec) elapsed = 0:0:00:19 / Fri Dec 16 02:55:10 2016
GPGPU-Sim PTX: 8200000 instructions simulated : ctaid=(11,0,0) tid=(15,15,0)
GPGPU-Sim PTX: 8300000 instructions simulated : ctaid=(25,0,0) tid=(15,13,0)
GPGPU-Sim PTX: 8400000 instructions simulated : ctaid=(23,0,0) tid=(15,5,0)
GPGPU-Sim PTX: 8500000 instructions simulated : ctaid=(18,0,0) tid=(15,9,0)
GPGPU-Sim PTX: 8600000 instructions simulated : ctaid=(13,1,0) tid=(15,3,0)
GPGPU-Sim uArch: cycles simulated: 44500  inst.: 8634112 (ipc=194.0) sim_rate=431705 (inst/sec) elapsed = 0:0:00:20 / Fri Dec 16 02:55:11 2016
GPGPU-Sim PTX: 8700000 instructions simulated : ctaid=(12,0,0) tid=(15,3,0)
GPGPU-Sim PTX: 8800000 instructions simulated : ctaid=(14,1,0) tid=(15,1,0)
GPGPU-Sim PTX: 8900000 instructions simulated : ctaid=(19,0,0) tid=(15,7,0)
GPGPU-Sim PTX: 9000000 instructions simulated : ctaid=(20,0,0) tid=(15,13,0)
GPGPU-Sim uArch: cycles simulated: 46500  inst.: 9039104 (ipc=194.4) sim_rate=430433 (inst/sec) elapsed = 0:0:00:21 / Fri Dec 16 02:55:12 2016
GPGPU-Sim PTX: 9100000 instructions simulated : ctaid=(13,0,0) tid=(15,9,0)
GPGPU-Sim PTX: 9200000 instructions simulated : ctaid=(20,0,0) tid=(15,7,0)
GPGPU-Sim PTX: 9300000 instructions simulated : ctaid=(28,0,0) tid=(15,1,0)
GPGPU-Sim PTX: 9400000 instructions simulated : ctaid=(0,0,0) tid=(15,9,0)
GPGPU-Sim PTX: 9500000 instructions simulated : ctaid=(15,0,0) tid=(15,9,0)
GPGPU-Sim uArch: cycles simulated: 49000  inst.: 9546080 (ipc=194.8) sim_rate=433912 (inst/sec) elapsed = 0:0:00:22 / Fri Dec 16 02:55:13 2016
GPGPU-Sim PTX: 9600000 instructions simulated : ctaid=(16,1,0) tid=(15,7,0)
GPGPU-Sim PTX: 9700000 instructions simulated : ctaid=(10,0,0) tid=(15,1,0)
GPGPU-Sim PTX: 9800000 instructions simulated : ctaid=(12,0,0) tid=(15,5,0)
GPGPU-Sim PTX: 9900000 instructions simulated : ctaid=(14,0,0) tid=(15,5,0)
GPGPU-Sim PTX: 10000000 instructions simulated : ctaid=(2,0,0) tid=(15,11,0)
GPGPU-Sim uArch: cycles simulated: 51500  inst.: 10071456 (ipc=195.6) sim_rate=437889 (inst/sec) elapsed = 0:0:00:23 / Fri Dec 16 02:55:14 2016
GPGPU-Sim PTX: 10100000 instructions simulated : ctaid=(23,0,0) tid=(15,13,0)
GPGPU-Sim PTX: 10200000 instructions simulated : ctaid=(15,0,0) tid=(15,5,0)
GPGPU-Sim PTX: 10300000 instructions simulated : ctaid=(13,0,0) tid=(15,1,0)
GPGPU-Sim PTX: 10400000 instructions simulated : ctaid=(18,0,0) tid=(15,13,0)
GPGPU-Sim PTX: 10500000 instructions simulated : ctaid=(26,1,0) tid=(15,15,0)
GPGPU-Sim uArch: cycles simulated: 54000  inst.: 10560992 (ipc=195.6) sim_rate=440041 (inst/sec) elapsed = 0:0:00:24 / Fri Dec 16 02:55:15 2016
GPGPU-Sim PTX: 10600000 instructions simulated : ctaid=(25,0,0) tid=(15,15,0)
GPGPU-Sim PTX: 10700000 instructions simulated : ctaid=(15,0,0) tid=(15,7,0)
GPGPU-Sim PTX: 10800000 instructions simulated : ctaid=(7,0,0) tid=(15,13,0)
GPGPU-Sim PTX: 10900000 instructions simulated : ctaid=(18,0,0) tid=(15,1,0)
GPGPU-Sim PTX: 11000000 instructions simulated : ctaid=(6,1,0) tid=(15,7,0)
GPGPU-Sim uArch: cycles simulated: 56500  inst.: 11050656 (ipc=195.6) sim_rate=442026 (inst/sec) elapsed = 0:0:00:25 / Fri Dec 16 02:55:16 2016
GPGPU-Sim PTX: 11100000 instructions simulated : ctaid=(25,0,0) tid=(15,5,0)
GPGPU-Sim PTX: 11200000 instructions simulated : ctaid=(4,0,0) tid=(15,13,0)
GPGPU-Sim PTX: 11300000 instructions simulated : ctaid=(26,0,0) tid=(15,5,0)
GPGPU-Sim PTX: 11400000 instructions simulated : ctaid=(2,0,0) tid=(15,13,0)
GPGPU-Sim PTX: 11500000 instructions simulated : ctaid=(2,0,0) tid=(15,7,0)
GPGPU-Sim uArch: cycles simulated: 59000  inst.: 11546496 (ipc=195.7) sim_rate=444096 (inst/sec) elapsed = 0:0:00:26 / Fri Dec 16 02:55:17 2016
GPGPU-Sim PTX: 11600000 instructions simulated : ctaid=(24,0,0) tid=(15,7,0)
GPGPU-Sim PTX: 11700000 instructions simulated : ctaid=(25,0,0) tid=(15,15,0)
GPGPU-Sim PTX: 11800000 instructions simulated : ctaid=(13,0,0) tid=(15,7,0)
GPGPU-Sim PTX: 11900000 instructions simulated : ctaid=(13,0,0) tid=(15,9,0)
GPGPU-Sim PTX: 12000000 instructions simulated : ctaid=(1,1,0) tid=(15,1,0)
GPGPU-Sim uArch: cycles simulated: 61500  inst.: 12052640 (ipc=196.0) sim_rate=446394 (inst/sec) elapsed = 0:0:00:27 / Fri Dec 16 02:55:18 2016
GPGPU-Sim PTX: 12100000 instructions simulated : ctaid=(23,0,0) tid=(15,15,0)
GPGPU-Sim PTX: 12200000 instructions simulated : ctaid=(26,0,0) tid=(15,7,0)
GPGPU-Sim PTX: 12300000 instructions simulated : ctaid=(16,1,0) tid=(15,7,0)
GPGPU-Sim PTX: 12400000 instructions simulated : ctaid=(27,1,0) tid=(15,15,0)
GPGPU-Sim PTX: 12500000 instructions simulated : ctaid=(2,0,0) tid=(15,7,0)
GPGPU-Sim uArch: cycles simulated: 64000  inst.: 12555040 (ipc=196.2) sim_rate=448394 (inst/sec) elapsed = 0:0:00:28 / Fri Dec 16 02:55:19 2016
GPGPU-Sim PTX: 12600000 instructions simulated : ctaid=(0,0,0) tid=(15,7,0)
GPGPU-Sim PTX: 12700000 instructions simulated : ctaid=(10,0,0) tid=(15,13,0)
GPGPU-Sim PTX: 12800000 instructions simulated : ctaid=(18,0,0) tid=(15,9,0)
GPGPU-Sim PTX: 12900000 instructions simulated : ctaid=(25,0,0) tid=(15,5,0)
GPGPU-Sim PTX: 13000000 instructions simulated : ctaid=(10,0,0) tid=(15,11,0)
GPGPU-Sim uArch: cycles simulated: 66500  inst.: 13038432 (ipc=196.1) sim_rate=449601 (inst/sec) elapsed = 0:0:00:29 / Fri Dec 16 02:55:20 2016
GPGPU-Sim PTX: 13100000 instructions simulated : ctaid=(8,1,0) tid=(15,13,0)
GPGPU-Sim PTX: 13200000 instructions simulated : ctaid=(8,0,0) tid=(15,11,0)
GPGPU-Sim PTX: 13300000 instructions simulated : ctaid=(12,0,0) tid=(15,3,0)
GPGPU-Sim PTX: 13400000 instructions simulated : ctaid=(4,0,0) tid=(15,7,0)
GPGPU-Sim PTX: 13500000 instructions simulated : ctaid=(8,0,0) tid=(15,11,0)
GPGPU-Sim uArch: cycles simulated: 69000  inst.: 13568064 (ipc=196.6) sim_rate=452268 (inst/sec) elapsed = 0:0:00:30 / Fri Dec 16 02:55:21 2016
GPGPU-Sim PTX: 13600000 instructions simulated : ctaid=(2,0,0) tid=(15,13,0)
GPGPU-Sim PTX: 13700000 instructions simulated : ctaid=(20,0,0) tid=(15,9,0)
GPGPU-Sim PTX: 13800000 instructions simulated : ctaid=(10,0,0) tid=(15,3,0)
GPGPU-Sim PTX: 13900000 instructions simulated : ctaid=(3,0,0) tid=(15,1,0)
GPGPU-Sim PTX: 14000000 instructions simulated : ctaid=(28,0,0) tid=(15,13,0)
GPGPU-Sim uArch: cycles simulated: 71500  inst.: 14052384 (ipc=196.5) sim_rate=453302 (inst/sec) elapsed = 0:0:00:31 / Fri Dec 16 02:55:22 2016
GPGPU-Sim PTX: 14100000 instructions simulated : ctaid=(0,1,0) tid=(15,9,0)
GPGPU-Sim PTX: 14200000 instructions simulated : ctaid=(5,1,0) tid=(15,3,0)
GPGPU-Sim PTX: 14300000 instructions simulated : ctaid=(9,0,0) tid=(15,9,0)
GPGPU-Sim PTX: 14400000 instructions simulated : ctaid=(6,1,0) tid=(15,13,0)
GPGPU-Sim uArch: cycles simulated: 73500  inst.: 14474048 (ipc=196.9) sim_rate=452314 (inst/sec) elapsed = 0:0:00:32 / Fri Dec 16 02:55:23 2016
GPGPU-Sim PTX: 14500000 instructions simulated : ctaid=(13,0,0) tid=(15,13,0)
GPGPU-Sim PTX: 14600000 instructions simulated : ctaid=(10,0,0) tid=(15,9,0)
GPGPU-Sim PTX: 14700000 instructions simulated : ctaid=(3,1,0) tid=(15,1,0)
GPGPU-Sim PTX: 14800000 instructions simulated : ctaid=(4,0,0) tid=(15,15,0)
GPGPU-Sim PTX: 14900000 instructions simulated : ctaid=(17,0,0) tid=(15,1,0)
GPGPU-Sim PTX: 15000000 instructions simulated : ctaid=(0,0,0) tid=(15,1,0)
GPGPU-Sim uArch: cycles simulated: 76500  inst.: 15049504 (ipc=196.7) sim_rate=456045 (inst/sec) elapsed = 0:0:00:33 / Fri Dec 16 02:55:24 2016
GPGPU-Sim PTX: 15100000 instructions simulated : ctaid=(20,0,0) tid=(15,15,0)
GPGPU-Sim uArch: Shader 8 finished CTA #0 (76826,0), 3 CTAs running
GPGPU-Sim uArch: core:  8, cta: 0 initialized @(76827,0)
GPGPU-Sim uArch: Shader 2 finished CTA #0 (76963,0), 3 CTAs running
GPGPU-Sim uArch: core:  2, cta: 0 initialized @(76964,0)
GPGPU-Sim uArch: Shader 6 finished CTA #0 (76997,0), 3 CTAs running
GPGPU-Sim uArch: core:  6, cta: 0 initialized @(76998,0)
GPGPU-Sim PTX: 15200000 instructions simulated : ctaid=(4,0,0) tid=(15,9,0)
GPGPU-Sim uArch: Shader 0 finished CTA #0 (77303,0), 3 CTAs running
GPGPU-Sim uArch: core:  0, cta: 0 initialized @(77304,0)
GPGPU-Sim uArch: Shader 4 finished CTA #0 (77309,0), 3 CTAs running
GPGPU-Sim uArch: core:  4, cta: 0 initialized @(77310,0)
GPGPU-Sim PTX: 15300000 instructions simulated : ctaid=(10,0,0) tid=(15,15,0)
GPGPU-Sim uArch: Shader 12 finished CTA #0 (77599,0), 3 CTAs running
GPGPU-Sim uArch: core: 12, cta: 0 initialized @(77600,0)
GPGPU-Sim uArch: Shader 7 finished CTA #0 (77794,0), 3 CTAs running
GPGPU-Sim uArch: core:  7, cta: 0 initialized @(77795,0)
GPGPU-Sim PTX: 15400000 instructions simulated : ctaid=(24,0,0) tid=(15,15,0)
GPGPU-Sim uArch: Shader 1 finished CTA #0 (77899,0), 3 CTAs running
GPGPU-Sim uArch: core:  1, cta: 0 initialized @(77900,0)
GPGPU-Sim uArch: Shader 11 finished CTA #0 (78152,0), 3 CTAs running
GPGPU-Sim uArch: core: 11, cta: 0 initialized @(78153,0)
GPGPU-Sim PTX: 15500000 instructions simulated : ctaid=(16,1,0) tid=(15,15,0)
GPGPU-Sim uArch: Shader 13 finished CTA #0 (78246,0), 3 CTAs running
GPGPU-Sim uArch: core: 13, cta: 0 initialized @(78247,0)
GPGPU-Sim uArch: Shader 9 finished CTA #0 (78282,0), 3 CTAs running
GPGPU-Sim uArch: core:  9, cta: 0 initialized @(78283,0)
GPGPU-Sim uArch: Shader 5 finished CTA #0 (78395,0), 3 CTAs running
GPGPU-Sim uArch: core:  5, cta: 0 initialized @(78396,0)
GPGPU-Sim uArch: cycles simulated: 78500  inst.: 15559424 (ipc=198.2) sim_rate=457630 (inst/sec) elapsed = 0:0:00:34 / Fri Dec 16 02:55:25 2016
GPGPU-Sim PTX: 15600000 instructions simulated : ctaid=(1,2,0) tid=(15,13,0)
GPGPU-Sim uArch: Shader 10 finished CTA #0 (78593,0), 3 CTAs running
GPGPU-Sim uArch: core: 10, cta: 0 initialized @(78594,0)
GPGPU-Sim PTX: 15700000 instructions simulated : ctaid=(22,0,0) tid=(15,9,0)
GPGPU-Sim uArch: Shader 3 finished CTA #0 (79334,0), 3 CTAs running
GPGPU-Sim uArch: core:  3, cta: 0 initialized @(79335,0)
GPGPU-Sim PTX: 15800000 instructions simulated : ctaid=(19,1,0) tid=(15,5,0)
GPGPU-Sim PTX: 15900000 instructions simulated : ctaid=(1,2,0) tid=(15,7,0)
GPGPU-Sim uArch: Shader 14 finished CTA #0 (79931,0), 3 CTAs running
GPGPU-Sim uArch: core: 14, cta: 0 initialized @(79932,0)
GPGPU-Sim PTX: 16000000 instructions simulated : ctaid=(31,0,0) tid=(15,5,0)
GPGPU-Sim uArch: cycles simulated: 80500  inst.: 16014592 (ipc=198.9) sim_rate=457559 (inst/sec) elapsed = 0:0:00:35 / Fri Dec 16 02:55:26 2016
GPGPU-Sim PTX: 16100000 instructions simulated : ctaid=(29,0,0) tid=(15,9,0)
GPGPU-Sim PTX: 16200000 instructions simulated : ctaid=(10,2,0) tid=(15,11,0)
GPGPU-Sim PTX: 16300000 instructions simulated : ctaid=(22,0,0) tid=(15,11,0)
GPGPU-Sim PTX: 16400000 instructions simulated : ctaid=(23,1,0) tid=(15,7,0)
GPGPU-Sim PTX: 16500000 instructions simulated : ctaid=(6,1,0) tid=(15,3,0)
GPGPU-Sim uArch: cycles simulated: 83000  inst.: 16518432 (ipc=199.0) sim_rate=458845 (inst/sec) elapsed = 0:0:00:36 / Fri Dec 16 02:55:27 2016
GPGPU-Sim PTX: 16600000 instructions simulated : ctaid=(12,1,0) tid=(15,9,0)
GPGPU-Sim PTX: 16700000 instructions simulated : ctaid=(30,0,0) tid=(15,7,0)
GPGPU-Sim PTX: 16800000 instructions simulated : ctaid=(22,0,0) tid=(15,9,0)
GPGPU-Sim PTX: 16900000 instructions simulated : ctaid=(18,0,0) tid=(15,5,0)
GPGPU-Sim uArch: cycles simulated: 85000  inst.: 16924096 (ipc=199.1) sim_rate=457408 (inst/sec) elapsed = 0:0:00:37 / Fri Dec 16 02:55:28 2016
GPGPU-Sim PTX: 17000000 instructions simulated : ctaid=(25,0,0) tid=(15,9,0)
GPGPU-Sim PTX: 17100000 instructions simulated : ctaid=(28,1,0) tid=(15,5,0)
GPGPU-Sim PTX: 17200000 instructions simulated : ctaid=(1,1,0) tid=(15,15,0)
GPGPU-Sim PTX: 17300000 instructions simulated : ctaid=(15,0,0) tid=(15,7,0)
GPGPU-Sim PTX: 17400000 instructions simulated : ctaid=(27,0,0) tid=(15,3,0)
GPGPU-Sim uArch: cycles simulated: 87500  inst.: 17419264 (ipc=199.1) sim_rate=458401 (inst/sec) elapsed = 0:0:00:38 / Fri Dec 16 02:55:29 2016
GPGPU-Sim PTX: 17500000 instructions simulated : ctaid=(17,0,0) tid=(15,5,0)
GPGPU-Sim PTX: 17600000 instructions simulated : ctaid=(26,0,0) tid=(15,15,0)
GPGPU-Sim PTX: 17700000 instructions simulated : ctaid=(24,0,0) tid=(15,9,0)
GPGPU-Sim PTX: 17800000 instructions simulated : ctaid=(1,1,0) tid=(15,3,0)
GPGPU-Sim PTX: 17900000 instructions simulated : ctaid=(29,0,0) tid=(15,5,0)
GPGPU-Sim uArch: cycles simulated: 90000  inst.: 17917408 (ipc=199.1) sim_rate=459420 (inst/sec) elapsed = 0:0:00:39 / Fri Dec 16 02:55:30 2016
GPGPU-Sim PTX: 18000000 instructions simulated : ctaid=(25,0,0) tid=(15,11,0)
GPGPU-Sim PTX: 18100000 instructions simulated : ctaid=(3,2,0) tid=(15,5,0)
GPGPU-Sim PTX: 18200000 instructions simulated : ctaid=(23,0,0) tid=(15,7,0)
GPGPU-Sim PTX: 18300000 instructions simulated : ctaid=(24,0,0) tid=(15,9,0)
GPGPU-Sim PTX: 18400000 instructions simulated : ctaid=(24,0,0) tid=(15,11,0)
GPGPU-Sim uArch: cycles simulated: 92500  inst.: 18407008 (ipc=199.0) sim_rate=460175 (inst/sec) elapsed = 0:0:00:40 / Fri Dec 16 02:55:31 2016
GPGPU-Sim PTX: 18500000 instructions simulated : ctaid=(23,0,0) tid=(15,5,0)
GPGPU-Sim PTX: 18600000 instructions simulated : ctaid=(22,0,0) tid=(15,13,0)
GPGPU-Sim PTX: 18700000 instructions simulated : ctaid=(3,1,0) tid=(15,1,0)
GPGPU-Sim PTX: 18800000 instructions simulated : ctaid=(29,0,0) tid=(15,1,0)
GPGPU-Sim PTX: 18900000 instructions simulated : ctaid=(18,0,0) tid=(15,7,0)
GPGPU-Sim uArch: cycles simulated: 95000  inst.: 18905504 (ipc=199.0) sim_rate=461109 (inst/sec) elapsed = 0:0:00:41 / Fri Dec 16 02:55:32 2016
GPGPU-Sim PTX: 19000000 instructions simulated : ctaid=(16,1,0) tid=(15,7,0)
GPGPU-Sim PTX: 19100000 instructions simulated : ctaid=(2,1,0) tid=(15,1,0)
GPGPU-Sim PTX: 19200000 instructions simulated : ctaid=(16,0,0) tid=(15,7,0)
GPGPU-Sim PTX: 19300000 instructions simulated : ctaid=(20,0,0) tid=(15,13,0)
GPGPU-Sim uArch: cycles simulated: 97000  inst.: 19317824 (ipc=199.2) sim_rate=459948 (inst/sec) elapsed = 0:0:00:42 / Fri Dec 16 02:55:33 2016
GPGPU-Sim PTX: 19400000 instructions simulated : ctaid=(3,1,0) tid=(15,3,0)
GPGPU-Sim PTX: 19500000 instructions simulated : ctaid=(7,1,0) tid=(15,7,0)
GPGPU-Sim PTX: 19600000 instructions simulated : ctaid=(3,1,0) tid=(15,9,0)
GPGPU-Sim PTX: 19700000 instructions simulated : ctaid=(27,0,0) tid=(15,11,0)
GPGPU-Sim PTX: 19800000 instructions simulated : ctaid=(15,0,0) tid=(15,7,0)
GPGPU-Sim uArch: cycles simulated: 99500  inst.: 19818304 (ipc=199.2) sim_rate=460890 (inst/sec) elapsed = 0:0:00:43 / Fri Dec 16 02:55:34 2016
GPGPU-Sim PTX: 19900000 instructions simulated : ctaid=(0,1,0) tid=(15,13,0)
GPGPU-Sim PTX: 20000000 instructions simulated : ctaid=(18,0,0) tid=(15,5,0)
GPGPU-Sim PTX: 20100000 instructions simulated : ctaid=(17,0,0) tid=(15,5,0)
GPGPU-Sim PTX: 20200000 instructions simulated : ctaid=(2,1,0) tid=(15,3,0)
GPGPU-Sim PTX: 20300000 instructions simulated : ctaid=(11,1,0) tid=(15,9,0)
GPGPU-Sim uArch: cycles simulated: 102000  inst.: 20324512 (ipc=199.3) sim_rate=461920 (inst/sec) elapsed = 0:0:00:44 / Fri Dec 16 02:55:35 2016
GPGPU-Sim PTX: 20400000 instructions simulated : ctaid=(21,1,0) tid=(15,13,0)
GPGPU-Sim PTX: 20500000 instructions simulated : ctaid=(19,0,0) tid=(15,7,0)
GPGPU-Sim PTX: 20600000 instructions simulated : ctaid=(26,0,0) tid=(15,1,0)
GPGPU-Sim PTX: 20700000 instructions simulated : ctaid=(1,1,0) tid=(15,7,0)
GPGPU-Sim PTX: 20800000 instructions simulated : ctaid=(24,1,0) tid=(15,15,0)
GPGPU-Sim uArch: cycles simulated: 104500  inst.: 20831776 (ipc=199.3) sim_rate=462928 (inst/sec) elapsed = 0:0:00:45 / Fri Dec 16 02:55:36 2016
GPGPU-Sim PTX: 20900000 instructions simulated : ctaid=(17,0,0) tid=(15,9,0)
GPGPU-Sim PTX: 21000000 instructions simulated : ctaid=(26,0,0) tid=(15,7,0)
GPGPU-Sim PTX: 21100000 instructions simulated : ctaid=(17,0,0) tid=(15,15,0)
GPGPU-Sim PTX: 21200000 instructions simulated : ctaid=(0,1,0) tid=(15,9,0)
GPGPU-Sim uArch: cycles simulated: 106500  inst.: 21242304 (ipc=199.5) sim_rate=461789 (inst/sec) elapsed = 0:0:00:46 / Fri Dec 16 02:55:37 2016
GPGPU-Sim uArch: Shader 3 finished CTA #1 (106529,0), 3 CTAs running
GPGPU-Sim uArch: core:  3, cta: 1 initialized @(106530,0)
GPGPU-Sim PTX: 21300000 instructions simulated : ctaid=(22,0,0) tid=(15,1,0)
GPGPU-Sim PTX: 21400000 instructions simulated : ctaid=(2,1,0) tid=(15,5,0)
GPGPU-Sim PTX: 21500000 instructions simulated : ctaid=(2,2,0) tid=(15,15,0)
GPGPU-Sim uArch: Shader 9 finished CTA #1 (107749,0), 3 CTAs running
GPGPU-Sim uArch: core:  9, cta: 1 initialized @(107750,0)
GPGPU-Sim PTX: 21600000 instructions simulated : ctaid=(21,0,0) tid=(15,1,0)
GPGPU-Sim uArch: Shader 8 finished CTA #1 (108355,0), 3 CTAs running
GPGPU-Sim uArch: core:  8, cta: 1 initialized @(108356,0)
GPGPU-Sim PTX: 21700000 instructions simulated : ctaid=(26,1,0) tid=(15,1,0)
GPGPU-Sim uArch: cycles simulated: 109000  inst.: 21744512 (ipc=199.5) sim_rate=462649 (inst/sec) elapsed = 0:0:00:47 / Fri Dec 16 02:55:38 2016
GPGPU-Sim PTX: 21800000 instructions simulated : ctaid=(2,1,0) tid=(15,7,0)
GPGPU-Sim PTX: 21900000 instructions simulated : ctaid=(28,0,0) tid=(15,13,0)
GPGPU-Sim uArch: Shader 1 finished CTA #1 (109982,0), 3 CTAs running
GPGPU-Sim uArch: core:  1, cta: 1 initialized @(109983,0)
GPGPU-Sim PTX: 22000000 instructions simulated : ctaid=(20,0,0) tid=(15,11,0)
GPGPU-Sim uArch: Shader 5 finished CTA #1 (110327,0), 3 CTAs running
GPGPU-Sim uArch: core:  5, cta: 1 initialized @(110328,0)
GPGPU-Sim uArch: Shader 13 finished CTA #1 (110356,0), 3 CTAs running
GPGPU-Sim uArch: core: 13, cta: 1 initialized @(110357,0)
GPGPU-Sim uArch: Shader 7 finished CTA #1 (110461,0), 3 CTAs running
GPGPU-Sim uArch: core:  7, cta: 1 initialized @(110462,0)
GPGPU-Sim uArch: Shader 6 finished CTA #1 (110474,0), 3 CTAs running
GPGPU-Sim uArch: core:  6, cta: 1 initialized @(110475,0)
GPGPU-Sim PTX: 22100000 instructions simulated : ctaid=(16,0,0) tid=(15,15,0)
GPGPU-Sim uArch: Shader 11 finished CTA #1 (110624,0), 3 CTAs running
GPGPU-Sim uArch: core: 11, cta: 1 initialized @(110625,0)
GPGPU-Sim PTX: 22200000 instructions simulated : ctaid=(9,1,0) tid=(15,3,0)
GPGPU-Sim uArch: Shader 14 finished CTA #1 (111259,0), 3 CTAs running
GPGPU-Sim uArch: core: 14, cta: 1 initialized @(111260,0)
GPGPU-Sim PTX: 22300000 instructions simulated : ctaid=(3,1,0) tid=(15,11,0)
GPGPU-Sim uArch: cycles simulated: 111500  inst.: 22304768 (ipc=200.0) sim_rate=464682 (inst/sec) elapsed = 0:0:00:48 / Fri Dec 16 02:55:39 2016
GPGPU-Sim PTX: 22400000 instructions simulated : ctaid=(18,2,0) tid=(15,3,0)
GPGPU-Sim uArch: Shader 12 finished CTA #1 (112000,0), 3 CTAs running
GPGPU-Sim uArch: core: 12, cta: 1 initialized @(112001,0)
GPGPU-Sim PTX: 22500000 instructions simulated : ctaid=(25,1,0) tid=(15,3,0)
GPGPU-Sim uArch: Shader 10 finished CTA #1 (112633,0), 3 CTAs running
GPGPU-Sim uArch: core: 10, cta: 1 initialized @(112634,0)
GPGPU-Sim PTX: 22600000 instructions simulated : ctaid=(12,1,0) tid=(15,3,0)
GPGPU-Sim PTX: 22700000 instructions simulated : ctaid=(3,1,0) tid=(15,13,0)
GPGPU-Sim uArch: Shader 4 finished CTA #1 (113180,0), 3 CTAs running
GPGPU-Sim uArch: core:  4, cta: 1 initialized @(113181,0)
GPGPU-Sim uArch: cycles simulated: 113500  inst.: 22751520 (ipc=200.5) sim_rate=464316 (inst/sec) elapsed = 0:0:00:49 / Fri Dec 16 02:55:40 2016
GPGPU-Sim PTX: 22800000 instructions simulated : ctaid=(3,1,0) tid=(15,11,0)
GPGPU-Sim PTX: 22900000 instructions simulated : ctaid=(10,2,0) tid=(15,7,0)
GPGPU-Sim PTX: 23000000 instructions simulated : ctaid=(0,1,0) tid=(15,11,0)
GPGPU-Sim PTX: 23100000 instructions simulated : ctaid=(13,1,0) tid=(15,3,0)
GPGPU-Sim uArch: Shader 0 finished CTA #1 (115204,0), 3 CTAs running
GPGPU-Sim uArch: core:  0, cta: 1 initialized @(115205,0)
GPGPU-Sim uArch: Shader 2 finished CTA #1 (115394,0), 3 CTAs running
GPGPU-Sim uArch: core:  2, cta: 1 initialized @(115395,0)
GPGPU-Sim uArch: cycles simulated: 115500  inst.: 23162464 (ipc=200.5) sim_rate=463249 (inst/sec) elapsed = 0:0:00:50 / Fri Dec 16 02:55:41 2016
GPGPU-Sim PTX: 23200000 instructions simulated : ctaid=(6,1,0) tid=(15,5,0)
GPGPU-Sim PTX: 23300000 instructions simulated : ctaid=(24,2,0) tid=(15,1,0)
GPGPU-Sim PTX: 23400000 instructions simulated : ctaid=(17,1,0) tid=(15,15,0)
GPGPU-Sim PTX: 23500000 instructions simulated : ctaid=(0,1,0) tid=(15,5,0)
GPGPU-Sim PTX: 23600000 instructions simulated : ctaid=(8,1,0) tid=(15,15,0)
GPGPU-Sim PTX: 23700000 instructions simulated : ctaid=(5,1,0) tid=(15,7,0)
GPGPU-Sim uArch: cycles simulated: 118000  inst.: 23685408 (ipc=200.7) sim_rate=464419 (inst/sec) elapsed = 0:0:00:51 / Fri Dec 16 02:55:42 2016
GPGPU-Sim PTX: 23800000 instructions simulated : ctaid=(3,1,0) tid=(15,5,0)
GPGPU-Sim PTX: 23900000 instructions simulated : ctaid=(22,1,0) tid=(15,9,0)
GPGPU-Sim PTX: 24000000 instructions simulated : ctaid=(1,1,0) tid=(15,13,0)
GPGPU-Sim PTX: 24100000 instructions simulated : ctaid=(1,1,0) tid=(15,1,0)
GPGPU-Sim PTX: 24200000 instructions simulated : ctaid=(7,1,0) tid=(15,9,0)
GPGPU-Sim uArch: cycles simulated: 120500  inst.: 24184160 (ipc=200.7) sim_rate=465080 (inst/sec) elapsed = 0:0:00:52 / Fri Dec 16 02:55:43 2016
GPGPU-Sim PTX: 24300000 instructions simulated : ctaid=(30,0,0) tid=(15,1,0)
GPGPU-Sim PTX: 24400000 instructions simulated : ctaid=(20,1,0) tid=(15,13,0)
GPGPU-Sim PTX: 24500000 instructions simulated : ctaid=(9,1,0) tid=(15,3,0)
GPGPU-Sim PTX: 24600000 instructions simulated : ctaid=(1,1,0) tid=(15,3,0)
GPGPU-Sim uArch: cycles simulated: 122500  inst.: 24583776 (ipc=200.7) sim_rate=463844 (inst/sec) elapsed = 0:0:00:53 / Fri Dec 16 02:55:44 2016
GPGPU-Sim PTX: 24700000 instructions simulated : ctaid=(2,1,0) tid=(15,9,0)
GPGPU-Sim PTX: 24800000 instructions simulated : ctaid=(4,2,0) tid=(15,11,0)
GPGPU-Sim PTX: 24900000 instructions simulated : ctaid=(23,1,0) tid=(15,3,0)
GPGPU-Sim PTX: 25000000 instructions simulated : ctaid=(2,1,0) tid=(15,11,0)
GPGPU-Sim PTX: 25100000 instructions simulated : ctaid=(13,1,0) tid=(15,1,0)
GPGPU-Sim uArch: cycles simulated: 125000  inst.: 25078048 (ipc=200.6) sim_rate=464408 (inst/sec) elapsed = 0:0:00:54 / Fri Dec 16 02:55:45 2016
GPGPU-Sim PTX: 25200000 instructions simulated : ctaid=(25,1,0) tid=(15,3,0)
GPGPU-Sim PTX: 25300000 instructions simulated : ctaid=(5,2,0) tid=(15,15,0)
GPGPU-Sim PTX: 25400000 instructions simulated : ctaid=(24,2,0) tid=(15,1,0)
GPGPU-Sim PTX: 25500000 instructions simulated : ctaid=(20,1,0) tid=(15,9,0)
GPGPU-Sim PTX: 25600000 instructions simulated : ctaid=(2,1,0) tid=(15,9,0)
GPGPU-Sim uArch: cycles simulated: 127500  inst.: 25583232 (ipc=200.7) sim_rate=465149 (inst/sec) elapsed = 0:0:00:55 / Fri Dec 16 02:55:46 2016
GPGPU-Sim PTX: 25700000 instructions simulated : ctaid=(10,1,0) tid=(15,15,0)
GPGPU-Sim PTX: 25800000 instructions simulated : ctaid=(5,1,0) tid=(15,3,0)
GPGPU-Sim PTX: 25900000 instructions simulated : ctaid=(1,1,0) tid=(15,11,0)
GPGPU-Sim PTX: 26000000 instructions simulated : ctaid=(1,1,0) tid=(15,11,0)
GPGPU-Sim PTX: 26100000 instructions simulated : ctaid=(9,1,0) tid=(15,9,0)
GPGPU-Sim uArch: cycles simulated: 130000  inst.: 26066496 (ipc=200.5) sim_rate=465473 (inst/sec) elapsed = 0:0:00:56 / Fri Dec 16 02:55:47 2016
GPGPU-Sim PTX: 26200000 instructions simulated : ctaid=(5,2,0) tid=(15,15,0)
GPGPU-Sim PTX: 26300000 instructions simulated : ctaid=(12,1,0) tid=(15,7,0)
GPGPU-Sim PTX: 26400000 instructions simulated : ctaid=(22,1,0) tid=(15,5,0)
GPGPU-Sim PTX: 26500000 instructions simulated : ctaid=(10,2,0) tid=(15,5,0)
GPGPU-Sim PTX: 26600000 instructions simulated : ctaid=(4,2,0) tid=(15,11,0)
GPGPU-Sim uArch: cycles simulated: 132500  inst.: 26586848 (ipc=200.7) sim_rate=466435 (inst/sec) elapsed = 0:0:00:57 / Fri Dec 16 02:55:48 2016
GPGPU-Sim PTX: 26700000 instructions simulated : ctaid=(6,1,0) tid=(15,3,0)
GPGPU-Sim PTX: 26800000 instructions simulated : ctaid=(8,1,0) tid=(15,13,0)
GPGPU-Sim PTX: 26900000 instructions simulated : ctaid=(16,1,0) tid=(15,11,0)
GPGPU-Sim PTX: 27000000 instructions simulated : ctaid=(12,1,0) tid=(15,13,0)
GPGPU-Sim PTX: 27100000 instructions simulated : ctaid=(28,1,0) tid=(15,15,0)
GPGPU-Sim uArch: cycles simulated: 135000  inst.: 27085760 (ipc=200.6) sim_rate=466995 (inst/sec) elapsed = 0:0:00:58 / Fri Dec 16 02:55:49 2016
GPGPU-Sim PTX: 27200000 instructions simulated : ctaid=(30,0,0) tid=(15,7,0)
GPGPU-Sim PTX: 27300000 instructions simulated : ctaid=(6,2,0) tid=(15,9,0)
GPGPU-Sim PTX: 27400000 instructions simulated : ctaid=(9,2,0) tid=(15,11,0)
GPGPU-Sim PTX: 27500000 instructions simulated : ctaid=(3,1,0) tid=(15,5,0)
GPGPU-Sim uArch: cycles simulated: 137000  inst.: 27495936 (ipc=200.7) sim_rate=466032 (inst/sec) elapsed = 0:0:00:59 / Fri Dec 16 02:55:50 2016
GPGPU-Sim PTX: 27600000 instructions simulated : ctaid=(2,1,0) tid=(15,15,0)
GPGPU-Sim PTX: 27700000 instructions simulated : ctaid=(21,2,0) tid=(15,7,0)
GPGPU-Sim PTX: 27800000 instructions simulated : ctaid=(12,1,0) tid=(15,9,0)
GPGPU-Sim PTX: 27900000 instructions simulated : ctaid=(12,1,0) tid=(15,7,0)
GPGPU-Sim PTX: 28000000 instructions simulated : ctaid=(26,1,0) tid=(15,9,0)
GPGPU-Sim uArch: cycles simulated: 139500  inst.: 27988960 (ipc=200.6) sim_rate=466482 (inst/sec) elapsed = 0:0:01:00 / Fri Dec 16 02:55:51 2016
GPGPU-Sim PTX: 28100000 instructions simulated : ctaid=(7,1,0) tid=(15,3,0)
GPGPU-Sim PTX: 28200000 instructions simulated : ctaid=(7,1,0) tid=(15,5,0)
GPGPU-Sim PTX: 28300000 instructions simulated : ctaid=(22,1,0) tid=(15,11,0)
GPGPU-Sim PTX: 28400000 instructions simulated : ctaid=(7,2,0) tid=(15,15,0)
GPGPU-Sim PTX: 28500000 instructions simulated : ctaid=(12,1,0) tid=(15,3,0)
GPGPU-Sim uArch: cycles simulated: 142000  inst.: 28499360 (ipc=200.7) sim_rate=467202 (inst/sec) elapsed = 0:0:01:01 / Fri Dec 16 02:55:52 2016
GPGPU-Sim PTX: 28600000 instructions simulated : ctaid=(10,1,0) tid=(15,9,0)
GPGPU-Sim PTX: 28700000 instructions simulated : ctaid=(8,1,0) tid=(15,7,0)
GPGPU-Sim PTX: 28800000 instructions simulated : ctaid=(12,1,0) tid=(15,13,0)
GPGPU-Sim PTX: 28900000 instructions simulated : ctaid=(5,1,0) tid=(15,13,0)
GPGPU-Sim PTX: 29000000 instructions simulated : ctaid=(30,0,0) tid=(15,7,0)
GPGPU-Sim uArch: cycles simulated: 144500  inst.: 28998656 (ipc=200.7) sim_rate=467720 (inst/sec) elapsed = 0:0:01:02 / Fri Dec 16 02:55:53 2016
GPGPU-Sim PTX: 29100000 instructions simulated : ctaid=(31,1,0) tid=(15,7,0)
GPGPU-Sim PTX: 29200000 instructions simulated : ctaid=(13,1,0) tid=(15,9,0)
GPGPU-Sim uArch: Shader 11 finished CTA #2 (145480,0), 3 CTAs running
GPGPU-Sim uArch: core: 11, cta: 2 initialized @(145481,0)
GPGPU-Sim PTX: 29300000 instructions simulated : ctaid=(4,1,0) tid=(15,1,0)
GPGPU-Sim uArch: Shader 3 finished CTA #2 (146241,0), 3 CTAs running
GPGPU-Sim uArch: core:  3, cta: 2 initialized @(146242,0)
GPGPU-Sim PTX: 29400000 instructions simulated : ctaid=(30,0,0) tid=(15,7,0)
GPGPU-Sim PTX: 29500000 instructions simulated : ctaid=(30,0,0) tid=(15,3,0)
GPGPU-Sim uArch: cycles simulated: 147000  inst.: 29515072 (ipc=200.8) sim_rate=468493 (inst/sec) elapsed = 0:0:01:03 / Fri Dec 16 02:55:54 2016
GPGPU-Sim PTX: 29600000 instructions simulated : ctaid=(19,1,0) tid=(15,3,0)
GPGPU-Sim uArch: Shader 6 finished CTA #2 (147252,0), 3 CTAs running
GPGPU-Sim uArch: core:  6, cta: 2 initialized @(147253,0)
GPGPU-Sim uArch: Shader 1 finished CTA #2 (147531,0), 3 CTAs running
GPGPU-Sim uArch: core:  1, cta: 2 initialized @(147532,0)
GPGPU-Sim PTX: 29700000 instructions simulated : ctaid=(5,1,0) tid=(15,15,0)
GPGPU-Sim PTX: 29800000 instructions simulated : ctaid=(10,1,0) tid=(15,7,0)
GPGPU-Sim uArch: Shader 7 finished CTA #2 (148334,0), 3 CTAs running
GPGPU-Sim uArch: core:  7, cta: 2 initialized @(148335,0)
GPGPU-Sim PTX: 29900000 instructions simulated : ctaid=(6,1,0) tid=(15,7,0)
GPGPU-Sim uArch: Shader 13 finished CTA #2 (148683,0), 3 CTAs running
GPGPU-Sim uArch: core: 13, cta: 2 initialized @(148684,0)
GPGPU-Sim uArch: Shader 14 finished CTA #2 (148757,0), 3 CTAs running
GPGPU-Sim uArch: core: 14, cta: 2 initialized @(148758,0)
GPGPU-Sim uArch: Shader 8 finished CTA #2 (148935,0), 3 CTAs running
GPGPU-Sim uArch: core:  8, cta: 2 initialized @(148936,0)
GPGPU-Sim uArch: cycles simulated: 149000  inst.: 29942880 (ipc=201.0) sim_rate=467857 (inst/sec) elapsed = 0:0:01:04 / Fri Dec 16 02:55:55 2016
GPGPU-Sim PTX: 30000000 instructions simulated : ctaid=(0,3,0) tid=(15,5,0)
GPGPU-Sim uArch: Shader 12 finished CTA #2 (149338,0), 3 CTAs running
GPGPU-Sim uArch: core: 12, cta: 2 initialized @(149339,0)
GPGPU-Sim PTX: 30100000 instructions simulated : ctaid=(23,1,0) tid=(15,3,0)
GPGPU-Sim uArch: Shader 0 finished CTA #2 (149712,0), 3 CTAs running
GPGPU-Sim uArch: core:  0, cta: 2 initialized @(149713,0)
GPGPU-Sim uArch: Shader 9 finished CTA #2 (149745,0), 3 CTAs running
GPGPU-Sim uArch: core:  9, cta: 2 initialized @(149746,0)
GPGPU-Sim PTX: 30200000 instructions simulated : ctaid=(18,1,0) tid=(15,5,0)
GPGPU-Sim uArch: Shader 2 finished CTA #2 (149957,0), 3 CTAs running
GPGPU-Sim uArch: core:  2, cta: 2 initialized @(149958,0)
GPGPU-Sim uArch: Shader 5 finished CTA #2 (150055,0), 3 CTAs running
GPGPU-Sim uArch: core:  5, cta: 2 initialized @(150056,0)
GPGPU-Sim uArch: Shader 4 finished CTA #2 (150236,0), 3 CTAs running
GPGPU-Sim uArch: core:  4, cta: 2 initialized @(150237,0)
GPGPU-Sim PTX: 30300000 instructions simulated : ctaid=(15,1,0) tid=(15,3,0)
GPGPU-Sim PTX: 30400000 instructions simulated : ctaid=(20,2,0) tid=(15,15,0)
GPGPU-Sim uArch: Shader 10 finished CTA #2 (150806,0), 3 CTAs running
GPGPU-Sim uArch: core: 10, cta: 2 initialized @(150807,0)
GPGPU-Sim PTX: 30500000 instructions simulated : ctaid=(7,2,0) tid=(15,5,0)
GPGPU-Sim uArch: cycles simulated: 151500  inst.: 30541696 (ipc=201.6) sim_rate=469872 (inst/sec) elapsed = 0:0:01:05 / Fri Dec 16 02:55:56 2016
GPGPU-Sim PTX: 30600000 instructions simulated : ctaid=(24,2,0) tid=(15,3,0)
GPGPU-Sim PTX: 30700000 instructions simulated : ctaid=(15,2,0) tid=(15,5,0)
GPGPU-Sim PTX: 30800000 instructions simulated : ctaid=(24,1,0) tid=(15,11,0)
GPGPU-Sim PTX: 30900000 instructions simulated : ctaid=(14,1,0) tid=(15,11,0)
GPGPU-Sim uArch: cycles simulated: 153500  inst.: 30954080 (ipc=201.7) sim_rate=469001 (inst/sec) elapsed = 0:0:01:06 / Fri Dec 16 02:55:57 2016
GPGPU-Sim PTX: 31000000 instructions simulated : ctaid=(5,2,0) tid=(15,3,0)
GPGPU-Sim PTX: 31100000 instructions simulated : ctaid=(2,2,0) tid=(15,13,0)
GPGPU-Sim PTX: 31200000 instructions simulated : ctaid=(26,1,0) tid=(15,7,0)
GPGPU-Sim PTX: 31300000 instructions simulated : ctaid=(2,2,0) tid=(15,1,0)
GPGPU-Sim PTX: 31400000 instructions simulated : ctaid=(1,2,0) tid=(15,11,0)
GPGPU-Sim uArch: cycles simulated: 156000  inst.: 31451936 (ipc=201.6) sim_rate=469431 (inst/sec) elapsed = 0:0:01:07 / Fri Dec 16 02:55:58 2016
GPGPU-Sim PTX: 31500000 instructions simulated : ctaid=(4,2,0) tid=(15,3,0)
GPGPU-Sim PTX: 31600000 instructions simulated : ctaid=(18,1,0) tid=(15,1,0)
GPGPU-Sim PTX: 31700000 instructions simulated : ctaid=(10,2,0) tid=(15,11,0)
GPGPU-Sim PTX: 31800000 instructions simulated : ctaid=(13,2,0) tid=(15,5,0)
GPGPU-Sim PTX: 31900000 instructions simulated : ctaid=(17,1,0) tid=(15,11,0)
GPGPU-Sim uArch: cycles simulated: 158500  inst.: 31940160 (ipc=201.5) sim_rate=469708 (inst/sec) elapsed = 0:0:01:08 / Fri Dec 16 02:55:59 2016
GPGPU-Sim PTX: 32000000 instructions simulated : ctaid=(14,1,0) tid=(15,7,0)
GPGPU-Sim PTX: 32100000 instructions simulated : ctaid=(31,2,0) tid=(15,9,0)
GPGPU-Sim PTX: 32200000 instructions simulated : ctaid=(22,1,0) tid=(15,1,0)
GPGPU-Sim PTX: 32300000 instructions simulated : ctaid=(5,2,0) tid=(15,9,0)
GPGPU-Sim PTX: 32400000 instructions simulated : ctaid=(16,1,0) tid=(15,9,0)
GPGPU-Sim uArch: cycles simulated: 161000  inst.: 32438816 (ipc=201.5) sim_rate=470127 (inst/sec) elapsed = 0:0:01:09 / Fri Dec 16 02:56:00 2016
GPGPU-Sim PTX: 32500000 instructions simulated : ctaid=(8,3,0) tid=(15,5,0)
GPGPU-Sim PTX: 32600000 instructions simulated : ctaid=(23,1,0) tid=(15,5,0)
GPGPU-Sim PTX: 32700000 instructions simulated : ctaid=(21,1,0) tid=(15,9,0)
GPGPU-Sim PTX: 32800000 instructions simulated : ctaid=(19,1,0) tid=(15,13,0)
GPGPU-Sim PTX: 32900000 instructions simulated : ctaid=(15,1,0) tid=(15,3,0)
GPGPU-Sim uArch: cycles simulated: 163500  inst.: 32926720 (ipc=201.4) sim_rate=470381 (inst/sec) elapsed = 0:0:01:10 / Fri Dec 16 02:56:01 2016
GPGPU-Sim PTX: 33000000 instructions simulated : ctaid=(14,1,0) tid=(15,11,0)
GPGPU-Sim PTX: 33100000 instructions simulated : ctaid=(27,1,0) tid=(15,5,0)
GPGPU-Sim PTX: 33200000 instructions simulated : ctaid=(21,2,0) tid=(15,5,0)
GPGPU-Sim PTX: 33300000 instructions simulated : ctaid=(29,1,0) tid=(15,3,0)
GPGPU-Sim PTX: 33400000 instructions simulated : ctaid=(13,1,0) tid=(15,15,0)
GPGPU-Sim uArch: cycles simulated: 166000  inst.: 33446304 (ipc=201.5) sim_rate=471074 (inst/sec) elapsed = 0:0:01:11 / Fri Dec 16 02:56:02 2016
GPGPU-Sim PTX: 33500000 instructions simulated : ctaid=(26,1,0) tid=(15,1,0)
GPGPU-Sim PTX: 33600000 instructions simulated : ctaid=(14,1,0) tid=(15,13,0)
GPGPU-Sim PTX: 33700000 instructions simulated : ctaid=(27,1,0) tid=(15,15,0)
GPGPU-Sim PTX: 33800000 instructions simulated : ctaid=(14,1,0) tid=(15,15,0)
GPGPU-Sim uArch: cycles simulated: 168000  inst.: 33842784 (ipc=201.4) sim_rate=470038 (inst/sec) elapsed = 0:0:01:12 / Fri Dec 16 02:56:03 2016
GPGPU-Sim PTX: 33900000 instructions simulated : ctaid=(14,1,0) tid=(15,13,0)
GPGPU-Sim PTX: 34000000 instructions simulated : ctaid=(29,1,0) tid=(15,7,0)
GPGPU-Sim PTX: 34100000 instructions simulated : ctaid=(3,3,0) tid=(15,3,0)
GPGPU-Sim PTX: 34200000 instructions simulated : ctaid=(16,1,0) tid=(15,13,0)
GPGPU-Sim PTX: 34300000 instructions simulated : ctaid=(16,1,0) tid=(15,7,0)
GPGPU-Sim PTX: 34400000 instructions simulated : ctaid=(22,1,0) tid=(15,13,0)
GPGPU-Sim uArch: cycles simulated: 170500  inst.: 34358816 (ipc=201.5) sim_rate=470668 (inst/sec) elapsed = 0:0:01:13 / Fri Dec 16 02:56:04 2016
GPGPU-Sim PTX: 34500000 instructions simulated : ctaid=(22,1,0) tid=(15,15,0)
GPGPU-Sim PTX: 34600000 instructions simulated : ctaid=(24,1,0) tid=(15,7,0)
GPGPU-Sim PTX: 34700000 instructions simulated : ctaid=(5,2,0) tid=(15,1,0)
GPGPU-Sim PTX: 34800000 instructions simulated : ctaid=(22,1,0) tid=(15,9,0)
GPGPU-Sim PTX: 34900000 instructions simulated : ctaid=(24,1,0) tid=(15,1,0)
GPGPU-Sim uArch: cycles simulated: 173000  inst.: 34863936 (ipc=201.5) sim_rate=471134 (inst/sec) elapsed = 0:0:01:14 / Fri Dec 16 02:56:05 2016
GPGPU-Sim PTX: 35000000 instructions simulated : ctaid=(2,2,0) tid=(15,1,0)
GPGPU-Sim PTX: 35100000 instructions simulated : ctaid=(18,2,0) tid=(15,5,0)
GPGPU-Sim PTX: 35200000 instructions simulated : ctaid=(22,2,0) tid=(15,9,0)
GPGPU-Sim PTX: 35300000 instructions simulated : ctaid=(22,1,0) tid=(15,5,0)
GPGPU-Sim PTX: 35400000 instructions simulated : ctaid=(31,1,0) tid=(15,1,0)
GPGPU-Sim uArch: cycles simulated: 175500  inst.: 35365504 (ipc=201.5) sim_rate=471540 (inst/sec) elapsed = 0:0:01:15 / Fri Dec 16 02:56:06 2016
GPGPU-Sim PTX: 35500000 instructions simulated : ctaid=(21,1,0) tid=(15,13,0)
GPGPU-Sim PTX: 35600000 instructions simulated : ctaid=(19,1,0) tid=(15,13,0)
GPGPU-Sim PTX: 35700000 instructions simulated : ctaid=(31,1,0) tid=(15,13,0)
GPGPU-Sim PTX: 35800000 instructions simulated : ctaid=(4,2,0) tid=(15,7,0)
GPGPU-Sim PTX: 35900000 instructions simulated : ctaid=(11,2,0) tid=(15,13,0)
GPGPU-Sim uArch: cycles simulated: 178000  inst.: 35858400 (ipc=201.5) sim_rate=471821 (inst/sec) elapsed = 0:0:01:16 / Fri Dec 16 02:56:07 2016
GPGPU-Sim PTX: 36000000 instructions simulated : ctaid=(23,1,0) tid=(15,11,0)
GPGPU-Sim PTX: 36100000 instructions simulated : ctaid=(16,1,0) tid=(15,15,0)
GPGPU-Sim PTX: 36200000 instructions simulated : ctaid=(1,3,0) tid=(15,15,0)
GPGPU-Sim PTX: 36300000 instructions simulated : ctaid=(31,1,0) tid=(15,11,0)
GPGPU-Sim uArch: cycles simulated: 180000  inst.: 36276928 (ipc=201.5) sim_rate=471128 (inst/sec) elapsed = 0:0:01:17 / Fri Dec 16 02:56:08 2016
GPGPU-Sim PTX: 36400000 instructions simulated : ctaid=(22,1,0) tid=(15,13,0)
GPGPU-Sim uArch: Shader 12 finished CTA #3 (180648,0), 3 CTAs running
GPGPU-Sim uArch: core: 12, cta: 3 initialized @(180649,0)
GPGPU-Sim PTX: 36500000 instructions simulated : ctaid=(13,1,0) tid=(15,5,0)
GPGPU-Sim PTX: 36600000 instructions simulated : ctaid=(26,1,0) tid=(15,5,0)
GPGPU-Sim PTX: 36700000 instructions simulated : ctaid=(22,1,0) tid=(15,13,0)
GPGPU-Sim PTX: 36800000 instructions simulated : ctaid=(25,1,0) tid=(15,11,0)
GPGPU-Sim uArch: cycles simulated: 182500  inst.: 36777504 (ipc=201.5) sim_rate=471506 (inst/sec) elapsed = 0:0:01:18 / Fri Dec 16 02:56:09 2016
GPGPU-Sim PTX: 36900000 instructions simulated : ctaid=(25,1,0) tid=(15,7,0)
GPGPU-Sim PTX: 37000000 instructions simulated : ctaid=(1,2,0) tid=(15,5,0)
GPGPU-Sim uArch: Shader 10 finished CTA #3 (183457,0), 3 CTAs running
GPGPU-Sim uArch: core: 10, cta: 3 initialized @(183458,0)
GPGPU-Sim uArch: Shader 4 finished CTA #3 (183521,0), 3 CTAs running
GPGPU-Sim uArch: core:  4, cta: 3 initialized @(183522,0)
GPGPU-Sim uArch: Shader 9 finished CTA #3 (183710,0), 3 CTAs running
GPGPU-Sim uArch: core:  9, cta: 3 initialized @(183711,0)
GPGPU-Sim PTX: 37100000 instructions simulated : ctaid=(10,3,0) tid=(15,5,0)
GPGPU-Sim PTX: 37200000 instructions simulated : ctaid=(7,3,0) tid=(15,5,0)
GPGPU-Sim uArch: Shader 2 finished CTA #3 (184313,0), 3 CTAs running
GPGPU-Sim uArch: core:  2, cta: 3 initialized @(184314,0)
GPGPU-Sim PTX: 37300000 instructions simulated : ctaid=(13,3,0) tid=(15,13,0)
GPGPU-Sim uArch: Shader 6 finished CTA #3 (184753,0), 3 CTAs running
GPGPU-Sim uArch: core:  6, cta: 3 initialized @(184754,0)
GPGPU-Sim uArch: cycles simulated: 185000  inst.: 37326496 (ipc=201.8) sim_rate=472487 (inst/sec) elapsed = 0:0:01:19 / Fri Dec 16 02:56:10 2016
GPGPU-Sim PTX: 37400000 instructions simulated : ctaid=(29,1,0) tid=(15,7,0)
GPGPU-Sim uArch: Shader 11 finished CTA #3 (185491,0), 3 CTAs running
GPGPU-Sim uArch: core: 11, cta: 3 initialized @(185492,0)
GPGPU-Sim PTX: 37500000 instructions simulated : ctaid=(18,2,0) tid=(15,15,0)
GPGPU-Sim uArch: Shader 14 finished CTA #3 (185837,0), 3 CTAs running
GPGPU-Sim uArch: core: 14, cta: 3 initialized @(185838,0)
GPGPU-Sim PTX: 37600000 instructions simulated : ctaid=(29,1,0) tid=(15,15,0)
GPGPU-Sim PTX: 37700000 instructions simulated : ctaid=(15,1,0) tid=(15,15,0)
GPGPU-Sim PTX: 37800000 instructions simulated : ctaid=(3,2,0) tid=(15,5,0)
GPGPU-Sim uArch: cycles simulated: 187000  inst.: 37754752 (ipc=201.9) sim_rate=471934 (inst/sec) elapsed = 0:0:01:20 / Fri Dec 16 02:56:11 2016
GPGPU-Sim uArch: Shader 8 finished CTA #3 (187305,0), 3 CTAs running
GPGPU-Sim uArch: core:  8, cta: 3 initialized @(187306,0)
GPGPU-Sim uArch: Shader 7 finished CTA #3 (187345,0), 3 CTAs running
GPGPU-Sim uArch: core:  7, cta: 3 initialized @(187346,0)
GPGPU-Sim PTX: 37900000 instructions simulated : ctaid=(13,2,0) tid=(15,5,0)
GPGPU-Sim uArch: Shader 0 finished CTA #3 (187658,0), 3 CTAs running
GPGPU-Sim uArch: core:  0, cta: 3 initialized @(187659,0)
GPGPU-Sim PTX: 38000000 instructions simulated : ctaid=(2,2,0) tid=(15,5,0)
GPGPU-Sim uArch: Shader 5 finished CTA #3 (187985,0), 3 CTAs running
GPGPU-Sim uArch: core:  5, cta: 3 initialized @(187986,0)
GPGPU-Sim uArch: Shader 3 finished CTA #3 (188204,0), 3 CTAs running
GPGPU-Sim uArch: core:  3, cta: 3 initialized @(188205,0)
GPGPU-Sim PTX: 38100000 instructions simulated : ctaid=(6,2,0) tid=(15,1,0)
GPGPU-Sim uArch: Shader 1 finished CTA #3 (188729,0), 3 CTAs running
GPGPU-Sim uArch: core:  1, cta: 3 initialized @(188730,0)
GPGPU-Sim PTX: 38200000 instructions simulated : ctaid=(8,2,0) tid=(15,7,0)
GPGPU-Sim uArch: Shader 13 finished CTA #3 (188852,0), 3 CTAs running
GPGPU-Sim uArch: core: 13, cta: 3 initialized @(188853,0)
GPGPU-Sim PTX: 38300000 instructions simulated : ctaid=(0,2,0) tid=(15,15,0)
GPGPU-Sim uArch: cycles simulated: 189500  inst.: 38323104 (ipc=202.2) sim_rate=473124 (inst/sec) elapsed = 0:0:01:21 / Fri Dec 16 02:56:12 2016
GPGPU-Sim PTX: 38400000 instructions simulated : ctaid=(25,2,0) tid=(15,13,0)
GPGPU-Sim PTX: 38500000 instructions simulated : ctaid=(16,2,0) tid=(15,15,0)
GPGPU-Sim PTX: 38600000 instructions simulated : ctaid=(19,2,0) tid=(15,5,0)
GPGPU-Sim PTX: 38700000 instructions simulated : ctaid=(28,1,0) tid=(15,13,0)
GPGPU-Sim uArch: cycles simulated: 191500  inst.: 38735776 (ipc=202.3) sim_rate=472387 (inst/sec) elapsed = 0:0:01:22 / Fri Dec 16 02:56:13 2016
GPGPU-Sim PTX: 38800000 instructions simulated : ctaid=(4,2,0) tid=(15,13,0)
GPGPU-Sim PTX: 38900000 instructions simulated : ctaid=(15,2,0) tid=(15,11,0)
GPGPU-Sim PTX: 39000000 instructions simulated : ctaid=(3,2,0) tid=(15,13,0)
GPGPU-Sim PTX: 39100000 instructions simulated : ctaid=(9,2,0) tid=(15,5,0)
GPGPU-Sim PTX: 39200000 instructions simulated : ctaid=(2,3,0) tid=(15,3,0)
GPGPU-Sim uArch: cycles simulated: 194000  inst.: 39225408 (ipc=202.2) sim_rate=472595 (inst/sec) elapsed = 0:0:01:23 / Fri Dec 16 02:56:14 2016
GPGPU-Sim PTX: 39300000 instructions simulated : ctaid=(24,2,0) tid=(15,7,0)
GPGPU-Sim PTX: 39400000 instructions simulated : ctaid=(12,2,0) tid=(15,5,0)
GPGPU-Sim PTX: 39500000 instructions simulated : ctaid=(23,2,0) tid=(15,13,0)
GPGPU-Sim PTX: 39600000 instructions simulated : ctaid=(30,2,0) tid=(15,3,0)
GPGPU-Sim PTX: 39700000 instructions simulated : ctaid=(9,2,0) tid=(15,7,0)
GPGPU-Sim uArch: cycles simulated: 196500  inst.: 39719744 (ipc=202.1) sim_rate=472854 (inst/sec) elapsed = 0:0:01:24 / Fri Dec 16 02:56:15 2016
GPGPU-Sim PTX: 39800000 instructions simulated : ctaid=(7,2,0) tid=(15,5,0)
GPGPU-Sim PTX: 39900000 instructions simulated : ctaid=(25,2,0) tid=(15,7,0)
GPGPU-Sim PTX: 40000000 instructions simulated : ctaid=(31,1,0) tid=(15,13,0)
GPGPU-Sim PTX: 40100000 instructions simulated : ctaid=(9,2,0) tid=(15,3,0)
GPGPU-Sim PTX: 40200000 instructions simulated : ctaid=(8,2,0) tid=(15,11,0)
GPGPU-Sim uArch: cycles simulated: 199000  inst.: 40217600 (ipc=202.1) sim_rate=473148 (inst/sec) elapsed = 0:0:01:25 / Fri Dec 16 02:56:16 2016
GPGPU-Sim PTX: 40300000 instructions simulated : ctaid=(12,2,0) tid=(15,13,0)
GPGPU-Sim PTX: 40400000 instructions simulated : ctaid=(2,2,0) tid=(15,9,0)
GPGPU-Sim PTX: 40500000 instructions simulated : ctaid=(10,2,0) tid=(15,13,0)
GPGPU-Sim PTX: 40600000 instructions simulated : ctaid=(3,2,0) tid=(15,7,0)
GPGPU-Sim PTX: 40700000 instructions simulated : ctaid=(17,2,0) tid=(15,13,0)
GPGPU-Sim uArch: cycles simulated: 201500  inst.: 40705344 (ipc=202.0) sim_rate=473317 (inst/sec) elapsed = 0:0:01:26 / Fri Dec 16 02:56:17 2016
GPGPU-Sim PTX: 40800000 instructions simulated : ctaid=(25,2,0) tid=(15,7,0)
GPGPU-Sim PTX: 40900000 instructions simulated : ctaid=(1,2,0) tid=(15,1,0)
GPGPU-Sim PTX: 41000000 instructions simulated : ctaid=(1,2,0) tid=(15,3,0)
GPGPU-Sim PTX: 41100000 instructions simulated : ctaid=(27,2,0) tid=(15,13,0)
GPGPU-Sim PTX: 41200000 instructions simulated : ctaid=(20,2,0) tid=(15,3,0)
GPGPU-Sim uArch: cycles simulated: 204000  inst.: 41225408 (ipc=202.1) sim_rate=473855 (inst/sec) elapsed = 0:0:01:27 / Fri Dec 16 02:56:18 2016
GPGPU-Sim PTX: 41300000 instructions simulated : ctaid=(15,2,0) tid=(15,3,0)
GPGPU-Sim PTX: 41400000 instructions simulated : ctaid=(21,2,0) tid=(15,3,0)
GPGPU-Sim PTX: 41500000 instructions simulated : ctaid=(28,2,0) tid=(15,3,0)
GPGPU-Sim PTX: 41600000 instructions simulated : ctaid=(11,2,0) tid=(15,11,0)
GPGPU-Sim PTX: 41700000 instructions simulated : ctaid=(30,1,0) tid=(15,1,0)
GPGPU-Sim uArch: cycles simulated: 206500  inst.: 41720960 (ipc=202.0) sim_rate=474101 (inst/sec) elapsed = 0:0:01:28 / Fri Dec 16 02:56:19 2016
GPGPU-Sim PTX: 41800000 instructions simulated : ctaid=(30,1,0) tid=(15,15,0)
GPGPU-Sim PTX: 41900000 instructions simulated : ctaid=(0,3,0) tid=(15,11,0)
GPGPU-Sim PTX: 42000000 instructions simulated : ctaid=(17,2,0) tid=(15,7,0)
GPGPU-Sim PTX: 42100000 instructions simulated : ctaid=(8,2,0) tid=(15,13,0)
GPGPU-Sim PTX: 42200000 instructions simulated : ctaid=(1,3,0) tid=(15,5,0)
GPGPU-Sim uArch: cycles simulated: 209000  inst.: 42225824 (ipc=202.0) sim_rate=474447 (inst/sec) elapsed = 0:0:01:29 / Fri Dec 16 02:56:20 2016
GPGPU-Sim PTX: 42300000 instructions simulated : ctaid=(29,1,0) tid=(15,3,0)
GPGPU-Sim PTX: 42400000 instructions simulated : ctaid=(17,2,0) tid=(15,3,0)
GPGPU-Sim PTX: 42500000 instructions simulated : ctaid=(7,3,0) tid=(15,15,0)
GPGPU-Sim PTX: 42600000 instructions simulated : ctaid=(2,2,0) tid=(15,1,0)
GPGPU-Sim PTX: 42700000 instructions simulated : ctaid=(19,3,0) tid=(15,15,0)
GPGPU-Sim uArch: cycles simulated: 211500  inst.: 42742464 (ipc=202.1) sim_rate=474916 (inst/sec) elapsed = 0:0:01:30 / Fri Dec 16 02:56:21 2016
GPGPU-Sim PTX: 42800000 instructions simulated : ctaid=(2,2,0) tid=(15,1,0)
GPGPU-Sim PTX: 42900000 instructions simulated : ctaid=(30,2,0) tid=(15,7,0)
GPGPU-Sim PTX: 43000000 instructions simulated : ctaid=(0,2,0) tid=(15,11,0)
GPGPU-Sim PTX: 43100000 instructions simulated : ctaid=(2,3,0) tid=(15,7,0)
GPGPU-Sim uArch: cycles simulated: 213500  inst.: 43143872 (ipc=202.1) sim_rate=474108 (inst/sec) elapsed = 0:0:01:31 / Fri Dec 16 02:56:22 2016
GPGPU-Sim PTX: 43200000 instructions simulated : ctaid=(7,2,0) tid=(15,7,0)
GPGPU-Sim PTX: 43300000 instructions simulated : ctaid=(27,2,0) tid=(15,5,0)
GPGPU-Sim PTX: 43400000 instructions simulated : ctaid=(5,2,0) tid=(15,13,0)
GPGPU-Sim PTX: 43500000 instructions simulated : ctaid=(3,3,0) tid=(15,9,0)
GPGPU-Sim PTX: 43600000 instructions simulated : ctaid=(18,2,0) tid=(15,3,0)
GPGPU-Sim uArch: cycles simulated: 216000  inst.: 43643424 (ipc=202.1) sim_rate=474385 (inst/sec) elapsed = 0:0:01:32 / Fri Dec 16 02:56:23 2016
GPGPU-Sim PTX: 43700000 instructions simulated : ctaid=(29,1,0) tid=(15,11,0)
GPGPU-Sim PTX: 43800000 instructions simulated : ctaid=(9,2,0) tid=(15,5,0)
GPGPU-Sim PTX: 43900000 instructions simulated : ctaid=(0,3,0) tid=(15,9,0)
GPGPU-Sim PTX: 44000000 instructions simulated : ctaid=(6,2,0) tid=(15,5,0)
GPGPU-Sim PTX: 44100000 instructions simulated : ctaid=(28,1,0) tid=(15,11,0)
GPGPU-Sim PTX: 44200000 instructions simulated : ctaid=(3,2,0) tid=(15,1,0)
GPGPU-Sim uArch: cycles simulated: 218500  inst.: 44151328 (ipc=202.1) sim_rate=474745 (inst/sec) elapsed = 0:0:01:33 / Fri Dec 16 02:56:24 2016
GPGPU-Sim PTX: 44300000 instructions simulated : ctaid=(23,2,0) tid=(15,11,0)
GPGPU-Sim PTX: 44400000 instructions simulated : ctaid=(6,3,0) tid=(15,3,0)
GPGPU-Sim PTX: 44500000 instructions simulated : ctaid=(1,2,0) tid=(15,1,0)
GPGPU-Sim PTX: 44600000 instructions simulated : ctaid=(6,2,0) tid=(15,7,0)
GPGPU-Sim PTX: 44700000 instructions simulated : ctaid=(30,1,0) tid=(15,9,0)
GPGPU-Sim uArch: cycles simulated: 221000  inst.: 44651168 (ipc=202.0) sim_rate=475012 (inst/sec) elapsed = 0:0:01:34 / Fri Dec 16 02:56:25 2016
GPGPU-Sim PTX: 44800000 instructions simulated : ctaid=(7,2,0) tid=(15,15,0)
GPGPU-Sim PTX: 44900000 instructions simulated : ctaid=(30,1,0) tid=(15,11,0)
[...]
traffic_breakdown_coretomem[INST_ACC_R] = 840 {8:105,}
traffic_breakdown_memtocore[CONST_ACC_R] = 1080 {72:15,}
traffic_breakdown_memtocore[GLOBAL_ACC_R] = 95953032 {136:705537,}
traffic_breakdown_memtocore[GLOBAL_ACC_W] = 131072 {8:16384,}
traffic_breakdown_memtocore[INST_ACC_R] = 14280 {136:105,}
maxmrqlatency = 175 
maxdqlatency = 0 
maxmflatency = 1589 
averagemflatency = 229 
max_icnt2mem_latency = 1316 
max_icnt2sh_latency = 2721766 
mrq_lat_table:225428 	5815 	5542 	12648 	15876 	5652 	813 	41 	0 	0 	0 	0 	0 	0 	0 	0 	0 	0 	0 	0 	0 	0 	0 	0 	0 	0 	0 	0 	0 	0 	0 	0 	
dq_lat_table:0 	0 	0 	0 	0 	0 	0 	0 	0 	0 	0 	0 	0 	0 	0 	0 	0 	0 	0 	0 	0 	0 	0 	0 	0 	0 	0 	0 	0 	0 	0 	0 	
mf_lat_table:0 	0 	0 	0 	0 	0 	0 	424073 	294433 	2803 	627 	0 	0 	0 	0 	0 	0 	0 	0 	0 	0 	0 	0 	0 	0 	0 	0 	0 	0 	0 	0 	0 	
icnt2mem_lat_table:0 	0 	0 	631825 	73372 	9196 	3408 	2782 	499 	918 	41 	0 	0 	0 	0 	0 	0 	0 	0 	0 	0 	0 	0 	0 	
icnt2sh_lat_table:0 	0 	0 	133310 	285043 	247998 	39042 	159 	0 	0 	0 	0 	0 	0 	0 	0 	480 	720 	1680 	3120 	6480 	3904 	0 	0 	
mf_lat_pw_table:0 	0 	0 	0 	0 	0 	0 	4804 	608 	2 	4 	0 	0 	0 	0 	0 	0 	0 	0 	0 	0 	0 	0 	0 	0 	0 	0 	0 	0 	0 	0 	0 	
maximum concurrent accesses to same row:
dram[0]:        24        30        23        26        26        29        21        29        24        32        23        27        24        32        24        30 
dram[1]:        32        24        32        25        32        16        32        25        32        20        32        26        32        29        32        25 
dram[2]:        29        23        27        26        29        25        27        24        32        23        27        25        32        24        30        26 
dram[3]:        24        32        20        32        16        32        24        32        24        32        23        32        29        32        25        32 
dram[4]:        26        29        24        27        28        25        24        27        22        32        28        27        24        32        24        30 
dram[5]:        32        20        32        20        32        16        32        29        32        20        32        24        32        24        32        30 
maximum service time to same row:
dram[0]:     34010     37306     32932     37644     33162     40825     34622     40529     38025     37538     38050     38420     68372     61312     65163     41044 
dram[1]:     39509     32044     40498     32372     41304     33443     42019     33446     41353     32825     41087     32797     50441     39559     49303     64591 
dram[2]:     37308     33755     37688     32916     40831     33252     40484     34510     37550     38050     38454     38050     61343     68182     41046     65162 
dram[3]:     35680     39536     32436     40486     33302     41328     33419     42081     32727     41347     32782     41087     39464     50439     64447     49289 
dram[4]:     33819     37277     32928     37704     32966     40796     34623     40485     38015     37556     38032     38432     68305     61297     61541     41045 
dram[5]:     39587     32155     40487     32470     41293     33456     42003     33403     41402     32777     41090     32781     50591     39559     49302     64402 
average row accesses per activate:
dram[0]:  3.398323  4.871951  3.432819  4.863492  3.273556  5.177340  3.446762  4.964968  3.425486  5.290000  3.382979  5.241453  4.368030  7.758389  4.071028  6.750789 
dram[1]:  6.229863  4.183136  5.936294  3.922481  5.962617  3.908075  5.547873  3.807833  6.003817  4.021519  5.971360  4.165505  9.391837  5.217687  7.264407  4.880841 
dram[2]:  4.902141  3.329569  4.759690  3.416667  5.233444  3.260914  5.009631  3.328374  5.289517  3.389957  5.250522  3.355405  7.804054  4.159858  6.683230  4.057944 
dram[3]:  4.215713  6.026616  3.887324  5.953578  3.865929  5.844037  3.874534  5.670310  4.127273  6.022988  4.042834  5.956417  5.240363  9.106719  4.784091  7.219594 
dram[4]:  3.446809  4.830816  3.355914  4.826499  3.305955  5.143322  3.259875  5.024194  3.400000  5.181669  3.328398  5.228145  4.385047  7.870749  4.011111  6.843451 
dram[5]:  6.086207  4.118644  5.945631  3.880769  5.844037  3.960908  5.709854  3.829028  6.026769  4.039490  5.860911  4.033784  9.302420  5.159551  7.301370  4.917647 
average row locality = 271815/59339 = 4.580714
number of total memory accesses made:
dram[0]:         0         0         0         0         0         0         0         0         0         0         0         0         0         0         0         0 
dram[1]:         0         0         0         0         0         0         0         0         0         0         0         0         0         0         0         0 
dram[2]:         0         0         0         0         0         0         0         0         0         0         0         0         0         0         0         0 
dram[3]:         0         0         0         0         0         0         0         0         0         0         0         0         0         0         0         0 
dram[4]:         0         0         0         0         0         0         0         0         0         0         0         0         0         0         0         0 
dram[5]:         0         0         0         0         0         0         0         0         0         0         0         0         0         0         0         0 
total accesses: 0
min_bank_accesses = 0!
min_chip_accesses = 0!
number of total read accesses:
dram[0]:      3050      3004      2935      2872      3081      2996      3012      2990      3044      3046      2376      2281      2158      2120      1986      1948 
dram[1]:      2979      2983      2888      2849      3034      2991      3001      2983      3018      3049      2334      2219      2109      2109      1951      1897 
dram[2]:      3014      3051      2878      2934      3005      3064      2993      3004      3051      3045      2347      2311      2118      2150      1960      1979 
dram[3]:      2974      2978      2849      2891      2988      3032      2991      2985      3050      3016      2286      2288      2119      2112      1913      1945 
dram[4]:      3048      3006      2941      2868      3070      3002      3008      2987      3051      3038      2301      2280      2154      2122      1974      1950 
dram[5]:      2985      2967      2876      2841      3030      2989      3001      2985      3024      3043      2272      2216      2115      2104      1940      1898 
total reads: 255700
bank skew: 3081/1897 = 1.62
chip skew: 42904/42286 = 1.01
number of total write accesses:
dram[0]:       192       192       182       192       150       157       128       128       128       128       168       172       192       192       192       192 
dram[1]:       192       192       187       187       156       155       128       128       128       128       168       172       192       192       192       192 
dram[2]:       192       192       192       182       156       148       128       128       128       128       168       172       192       192       192       192 
dram[3]:       192       192       187       187       155       153       128       128       128       128       168       172       192       192       192       192 
dram[4]:       192       192       180       192       150       156       128       128       128       128       172       172       192       192       192       192 
dram[5]:       192       192       186       186       155       152       128       128       128       128       172       172       192       192       192       192 
total reads: 16115
bank skew: 192/128 = 1.50
chip skew: 2689/2682 = 1.00
average mf latency per bank:
dram[0]:        581       497       607       512       608       535       697       580       680       569       751       678       753       642       817       682
dram[1]:        503       520       508       538       524       550       586       622       585       594       661       706       641       688       693       718
dram[2]:        500       580       511       605       529       607       580       692       571       673       660       752       646       749       681       814
dram[3]:        519       497       539       512       548       527       618       595       606       579       681       674       688       633       713       705
dram[4]:        582       497       610       516       612       533       704       588       679       567       760       671       753       637       818       692
dram[5]:        501       517       513       542       527       549       589       621       578       593       673       704       632       676       702       730
maximum mf latency per bank:
dram[0]:       1340       701      1386       651      1514       608      1289       596      1430       536      1457       669      1430       684      1457       602
dram[1]:        477       657       483       652       464       663       476       654       453       608       451       595       452       648       483       699
dram[2]:        586      1469       604      1589       652      1499       573      1355       541      1325       685      1529       581      1445       603      1547
dram[3]:        638       542       612       589       728       585       670       552       675       493       652       514       732       512       638       595
dram[4]:       1541       664      1419       625      1382       648      1362       546      1512       624      1463       695      1363       607      1535       610
dram[5]:        516       657       574       660       487       688       457       647       488       597       503       610       538       619       457       742

Number of Memory Banks Accessed per Memory Operation per Warp (from 0):
0	0	0	0	0	0	0	0	0	0	0	0	0	0	0	0	0	0	0	0	0	0	0	0	0	0	0	0	0	0	0	0	0	0	0	0	0	0	0	0	0	0	0	0	0	0	0	0	0	0	0	0	0	0	0	0	0	0	0	0	0	0	0	0	0	0	0	0	0	0	0	0	0	0	0	0	0	0	0	0	0	0	0	0	0	0	0	0	0	0	0	0	0	0	0	0	
Average # of Memory Banks Accessed per Memory Operation per Warp=-nan

position of mrq chosen
0	0	0	0	0	0	0	0	0	0	0	0	0	0	0	0	

average position of mrq chosen = -nan
Memory Partition 0: 
Cache L2_bank_000:
MSHR contents

Cache L2_bank_001:
MSHR contents

In Dram Latency Queue (total = 0): 
DRAM[0]: 16 bks, busW=4 BL=8 CL=12, tRRD=2 tCCD=6, tRCD=12 tRAS=28 tRP=12 tRC=40
n_cmd=3592732 n_nop=3481583 n_act=10717 n_pre=10701 n_req=45584 n_rd=85798 n_write=3933 bw_util=0.04995
n_activity=773006 dram_eff=0.2322
bk0: 6100a 3552129i bk1: 6008a 3559767i bk2: 5870a 3552337i bk3: 5744a 3560261i bk4: 6162a 3549427i bk5: 5992a 3560305i bk6: 6024a 3551285i bk7: 5980a 3559792i bk8: 6088a 3552218i bk9: 6092a 3560573i bk10: 4752a 3558272i bk11: 4562a 3566477i bk12: 4316a 3564815i bk13: 4240a 3572204i bk14: 3972a 3566379i bk15: 3896a 3573233i 
dram_util_bins: 0 0 0 0 0 0 0 0 0 0
dram_eff_bins: 0 0 0 0 0 0 0 0 0 0
mrqq: max=16 avg=0.0485967
Memory Partition 1: 
Cache L2_bank_002:
MSHR contents

Cache L2_bank_003:
MSHR contents

In Dram Latency Queue (total = 0): 
DRAM[1]: 16 bks, busW=4 BL=8 CL=12, tRRD=2 tCCD=6, tRCD=12 tRAS=28 tRP=12 tRC=40
n_cmd=3592732 n_nop=3486031 n_act=8997 n_pre=8981 n_req=45083 n_rd=84788 n_write=3935 bw_util=0.04939
n_activity=748494 dram_eff=0.2371
bk0: 5958a 3564097i bk1: 5966a 3556728i bk2: 5776a 3563833i bk3: 5698a 3556328i bk4: 6068a 3562718i bk5: 5982a 3555084i bk6: 6002a 3562033i bk7: 5966a 3554598i bk8: 6036a 3563273i bk9: 6098a 3555149i bk10: 4668a 3567588i bk11: 4438a 3564247i bk12: 4218a 3573259i bk13: 4218a 3568194i bk14: 3902a 3573258i bk15: 3794a 3570389i 
dram_util_bins: 0 0 0 0 0 0 0 0 0 0
dram_eff_bins: 0 0 0 0 0 0 0 0 0 0
mrqq: max=15 avg=0.0497992
Memory Partition 2: 
Cache L2_bank_004:
MSHR contents

Cache L2_bank_005:
MSHR contents

In Dram Latency Queue (total = 0): 
DRAM[2]: 16 bks, busW=4 BL=8 CL=12, tRRD=2 tCCD=6, tRCD=12 tRAS=28 tRP=12 tRC=40
n_cmd=3592732 n_nop=3481390 n_act=10810 n_pre=10794 n_req=45586 n_rd=85808 n_write=3930 bw_util=0.04996
n_activity=774290 dram_eff=0.2318
bk0: 6028a 3560531i bk1: 6102a 3551000i bk2: 5756a 3559901i bk3: 5868a 3551682i bk4: 6010a 3560715i bk5: 6128a 3550002i bk6: 5986a 3560063i bk7: 6008a 3550333i bk8: 6102a 3560693i bk9: 6090a 3551424i bk10: 4694a 3565346i bk11: 4622a 3559128i bk12: 4236a 3571519i bk13: 4300a 3564632i bk14: 3920a 3572218i bk15: 3958a 3566819i 
dram_util_bins: 0 0 0 0 0 0 0 0 0 0
dram_eff_bins: 0 0 0 0 0 0 0 0 0 0
mrqq: max=15 avg=0.048067
Memory Partition 3: 
Cache L2_bank_006:
MSHR contents

Cache L2_bank_007:
MSHR contents

In Dram Latency Queue (total = 0): 
DRAM[3]: 16 bks, busW=4 BL=8 CL=12, tRRD=2 tCCD=6, tRCD=12 tRAS=28 tRP=12 tRC=40
n_cmd=3592732 n_nop=3485919 n_act=9029 n_pre=9013 n_req=45103 n_rd=84834 n_write=3937 bw_util=0.04942
n_activity=748309 dram_eff=0.2373
bk0: 5948a 3557333i bk1: 5956a 3563458i bk2: 5698a 3556342i bk3: 5782a 3563425i bk4: 5976a 3555166i bk5: 6064a 3562359i bk6: 5982a 3554872i bk7: 5970a 3562061i bk8: 6100a 3555946i bk9: 6032a 3563147i bk10: 4572a 3562594i bk11: 4576a 3568215i bk12: 4238a 3567793i bk13: 4224a 3573357i bk14: 3826a 3569229i bk15: 3890a 3573821i 
dram_util_bins: 0 0 0 0 0 0 0 0 0 0
dram_eff_bins: 0 0 0 0 0 0 0 0 0 0
mrqq: max=16 avg=0.0492124
Memory Partition 4: 
Cache L2_bank_008:
MSHR contents

Cache L2_bank_009:
MSHR contents

In Dram Latency Queue (total = 0): 
DRAM[4]: 16 bks, busW=4 BL=8 CL=12, tRRD=2 tCCD=6, tRCD=12 tRAS=28 tRP=12 tRC=40
n_cmd=3592732 n_nop=3481659 n_act=10776 n_pre=10760 n_req=45486 n_rd=85600 n_write=3937 bw_util=0.04984
n_activity=772851 dram_eff=0.2317
bk0: 6096a 3552226i bk1: 6012a 3559475i bk2: 5882a 3551908i bk3: 5736a 3559994i bk4: 6140a 3549979i bk5: 6004a 3560128i bk6: 6016a 3549997i bk7: 5974a 3559981i bk8: 6102a 3551604i bk9: 6076a 3560180i bk10: 4602a 3558992i bk11: 4560a 3566140i bk12: 4308a 3564986i bk13: 4244a 3572173i bk14: 3948a 3566477i bk15: 3900a 3573316i 
dram_util_bins: 0 0 0 0 0 0 0 0 0 0
dram_eff_bins: 0 0 0 0 0 0 0 0 0 0
mrqq: max=14 avg=0.0487401
Memory Partition 5: 
Cache L2_bank_010:
MSHR contents

Cache L2_bank_011:
MSHR contents

In Dram Latency Queue (total = 0): 
DRAM[5]: 16 bks, busW=4 BL=8 CL=12, tRRD=2 tCCD=6, tRCD=12 tRAS=28 tRP=12 tRC=40
n_cmd=3592732 n_nop=3486220 n_act=9010 n_pre=8994 n_req=44973 n_rd=84572 n_write=3936 bw_util=0.04927
n_activity=749871 dram_eff=0.2361
bk0: 5970a 3563913i bk1: 5934a 3556518i bk2: 5752a 3564047i bk3: 5682a 3556155i bk4: 6060a 3562309i bk5: 5978a 3555374i bk6: 6002a 3562607i bk7: 5970a 3554470i bk8: 6048a 3563334i bk9: 6086a 3555607i bk10: 4544a 3568160i bk11: 4432a 3563359i bk12: 4230a 3573168i bk13: 4208a 3568419i bk14: 3880a 3573579i bk15: 3796a 3570082i 
dram_util_bins: 0 0 0 0 0 0 0 0 0 0
dram_eff_bins: 0 0 0 0 0 0 0 0 0 0
mrqq: max=16 avg=0.0500015

========= L2 cache stats =========
L2_cache_bank[0]: Access = 66372, Miss = 21642, Miss_rate = 0.326, Pending_hits = 124, Reservation_fails = 786
L2_cache_bank[1]: Access = 56736, Miss = 21257, Miss_rate = 0.375, Pending_hits = 122, Reservation_fails = 0
L2_cache_bank[2]: Access = 60998, Miss = 21314, Miss_rate = 0.349, Pending_hits = 112, Reservation_fails = 174
L2_cache_bank[3]: Access = 56560, Miss = 21080, Miss_rate = 0.373, Pending_hits = 111, Reservation_fails = 4
L2_cache_bank[4]: Access = 56830, Miss = 21366, Miss_rate = 0.376, Pending_hits = 125, Reservation_fails = 128
L2_cache_bank[5]: Access = 66293, Miss = 21538, Miss_rate = 0.325, Pending_hits = 129, Reservation_fails = 353
L2_cache_bank[6]: Access = 56633, Miss = 21170, Miss_rate = 0.374, Pending_hits = 118, Reservation_fails = 0
L2_cache_bank[7]: Access = 60985, Miss = 21247, Miss_rate = 0.348, Pending_hits = 106, Reservation_fails = 63
L2_cache_bank[8]: Access = 66269, Miss = 21547, Miss_rate = 0.325, Pending_hits = 120, Reservation_fails = 264
L2_cache_bank[9]: Access = 56802, Miss = 21253, Miss_rate = 0.374, Pending_hits = 124, Reservation_fails = 0
L2_cache_bank[10]: Access = 60968, Miss = 21243, Miss_rate = 0.348, Pending_hits = 102, Reservation_fails = 58
L2_cache_bank[11]: Access = 56595, Miss = 21043, Miss_rate = 0.372, Pending_hits = 108, Reservation_fails = 0
L2_total_cache_accesses = 722041
L2_total_cache_misses = 255700
L2_total_cache_miss_rate = 0.3541
L2_total_cache_pending_hits = 1401
L2_total_cache_reservation_fails = 1830
L2_total_cache_breakdown:
	L2_cache_stats_breakdown[GLOBAL_ACC_R][HIT] = 457086
	L2_cache_stats_breakdown[GLOBAL_ACC_R][HIT_RESERVED] = 975
	L2_cache_stats_breakdown[GLOBAL_ACC_R][MISS] = 247476
	L2_cache_stats_breakdown[GLOBAL_ACC_R][RESERVATION_FAIL] = 1252
	L2_cache_stats_breakdown[CONST_ACC_R][HIT] = 11
	L2_cache_stats_breakdown[CONST_ACC_R][HIT_RESERVED] = 3
	L2_cache_stats_breakdown[CONST_ACC_R][MISS] = 1
	L2_cache_stats_breakdown[CONST_ACC_R][RESERVATION_FAIL] = 109
	L2_cache_stats_breakdown[GLOBAL_ACC_W][HIT] = 7762
	L2_cache_stats_breakdown[GLOBAL_ACC_W][HIT_RESERVED] = 406
	L2_cache_stats_breakdown[GLOBAL_ACC_W][MISS] = 8216
	L2_cache_stats_breakdown[GLOBAL_ACC_W][RESERVATION_FAIL] = 4
	L2_cache_stats_breakdown[INST_ACC_R][HIT] = 81
	L2_cache_stats_breakdown[INST_ACC_R][HIT_RESERVED] = 17
	L2_cache_stats_breakdown[INST_ACC_R][MISS] = 7
	L2_cache_stats_breakdown[INST_ACC_R][RESERVATION_FAIL] = 465
L2_cache_data_port_util = 0.057
L2_cache_fill_port_util = 0.031

icnt_total_pkts_mem_to_simt=3544639
icnt_total_pkts_simt_to_mem=754809
LD_mem_lat_dist  0 0 0 0 0 0 0 0 0 0 0 0 0 0 0 0 0 0 0 0 0 0 0 0 0 0 0
ST_mem_lat_dist  0 0 0 0 0 0 0 0 0 0 0 0 0 0 0 0 0 0 0 0 0 0 0 0 0 0 0
----------------------------Interconnect-DETAILS--------------------------------
Class 0:
Packet latency average = 19.094
	minimum = 6
	maximum = 1067
Network latency average = 16.1046
	minimum = 6
	maximum = 755
Slowest packet = 419
Flit latency average = 16.1395
	minimum = 6
	maximum = 755
Slowest flit = 4001
Fragmentation average = 0.000211207
	minimum = 0
	maximum = 107
Injected packet rate average = 0.0196507
	minimum = 0.0172781 (at node 6)
	maximum = 0.0243856 (at node 15)
Accepted packet rate average = 0.0196507
	minimum = 0.0172781 (at node 6)
	maximum = 0.0243856 (at node 15)
Injected flit rate average = 0.0585057
	minimum = 0.0180776 (at node 6)
	maximum = 0.119913 (at node 15)
Accepted flit rate average= 0.0585057
	minimum = 0.0217858 (at node 18)
	maximum = 0.08821 (at node 7)
Injected packet length average = 2.97729
Accepted packet length average = 2.97729
Total in-flight flits = 0 (0 measured)
====== Overall Traffic Statistics ======
====== Traffic class 0 ======
Packet latency average = 19.094 (1 samples)
	minimum = 6 (1 samples)
	maximum = 1067 (1 samples)
Network latency average = 16.1046 (1 samples)
	minimum = 6 (1 samples)
	maximum = 755 (1 samples)
Flit latency average = 16.1395 (1 samples)
	minimum = 6 (1 samples)
	maximum = 755 (1 samples)
Fragmentation average = 0.000211207 (1 samples)
	minimum = 0 (1 samples)
	maximum = 107 (1 samples)
Injected packet rate average = 0.0196507 (1 samples)
	minimum = 0.0172781 (1 samples)
	maximum = 0.0243856 (1 samples)
Accepted packet rate average = 0.0196507 (1 samples)
	minimum = 0.0172781 (1 samples)
	maximum = 0.0243856 (1 samples)
Injected flit rate average = 0.0585057 (1 samples)
	minimum = 0.0180776 (1 samples)
	maximum = 0.119913 (1 samples)
Accepted flit rate average = 0.0585057 (1 samples)
	minimum = 0.0217858 (1 samples)
	maximum = 0.08821 (1 samples)
Injected packet size average = 2.97729 (1 samples)
Accepted packet size average = 2.97729 (1 samples)
Hops average = 1 (1 samples)
----------------------------END-of-Interconnect-DETAILS-------------------------


gpgpu_simulation_time = 0 days, 0 hrs, 19 min, 1 sec (1141 sec)
gpgpu_simulation_rate = 480635 (inst/sec)
gpgpu_simulation_rate = 2385 (cycle/sec)
The GPU Elapsed Time:1140.204815 Sec.
The CPU Elapsed Time:0.409740 Sec.
Verifying
Verify Success!!
