

        *** GPGPU-Sim Simulator Version 3.2.2  [build 0] ***


GPGPU-Sim PTX: simulation mode 0 (can change with PTX_SIM_MODE_FUNC environment variable:
               1=functional simulation only, 0=detailed performance simulator)
GPGPU-Sim PTX: overriding embedded ptx with ptx file (PTX_SIM_USE_PTX_FILE is set)
DEBUG2 File name parsing = test.ptx
GPGPU-Sim: Configuration options:

-network_mode                           1 # Interconnection network mode
-inter_config_file   config_fermi_islip.icnt # Interconnection network config file
-gpgpu_ptx_use_cuobjdump                    1 # Use cuobjdump to extract ptx and sass from binaries
-gpgpu_experimental_lib_support                    0 # Try to extract code from cuda libraries [Broken because of unknown cudaGetExportTable]
-gpgpu_ptx_convert_to_ptxplus                    0 # Convert SASS (native ISA) to ptxplus and run ptxplus
-gpgpu_ptx_force_max_capability                   20 # Force maximum compute capability
-gpgpu_ptx_inst_debug_to_file                    0 # Dump executed instructions' debug information to file
-gpgpu_ptx_inst_debug_file       inst_debug.txt # Executed instructions' debug output file
-gpgpu_ptx_inst_debug_thread_uid                    1 # Thread UID for executed instructions' debug output
-gpgpu_simd_model                       1 # 1 = post-dominator
-gpgpu_shader_core_pipeline              1536:32 # shader core pipeline config, i.e., {<nthread>:<warpsize>}
-gpgpu_tex_cache:l1  4:128:24,L:R:m:N:L,F:128:4,128:2 # per-shader L1 texture cache  (READ-ONLY) config  {<nsets>:<bsize>:<assoc>,<rep>:<wr>:<alloc>:<wr_alloc>,<mshr>:<N>:<merge>,<mq>:<rf>}
-gpgpu_const_cache:l1 64:64:2,L:R:f:N:L,A:2:32,4 # per-shader L1 constant memory cache  (READ-ONLY) config  {<nsets>:<bsize>:<assoc>,<rep>:<wr>:<alloc>:<wr_alloc>,<mshr>:<N>:<merge>,<mq>} 
-gpgpu_cache:il1     4:128:4,L:R:f:N:L,A:2:32,4 # shader L1 instruction cache config  {<nsets>:<bsize>:<assoc>,<rep>:<wr>:<alloc>:<wr_alloc>,<mshr>:<N>:<merge>,<mq>} 
-gpgpu_cache:dl1     32:128:4,L:L:m:N:H,A:32:8,8 # per-shader L1 data cache config  {<nsets>:<bsize>:<assoc>,<rep>:<wr>:<alloc>:<wr_alloc>,<mshr>:<N>:<merge>,<mq> | none}
-gpgpu_cache:dl1PrefL1                 none # per-shader L1 data cache config  {<nsets>:<bsize>:<assoc>,<rep>:<wr>:<alloc>:<wr_alloc>,<mshr>:<N>:<merge>,<mq> | none}
-gpgpu_cache:dl1PreShared                 none # per-shader L1 data cache config  {<nsets>:<bsize>:<assoc>,<rep>:<wr>:<alloc>:<wr_alloc>,<mshr>:<N>:<merge>,<mq> | none}
-gmem_skip_L1D                          0 # global memory access skip L1D cache (implements -Xptxas -dlcm=cg, default=no skip)
-gpgpu_perfect_mem                      0 # enable perfect memory mode (no cache miss)
-n_regfile_gating_group                    4 # group of lanes that should be read/written together)
-gpgpu_clock_gated_reg_file                    0 # enable clock gated reg file for power calculations
-gpgpu_clock_gated_lanes                    0 # enable clock gated lanes for power calculations
-gpgpu_shader_registers                32768 # Number of registers per shader core. Limits number of concurrent CTAs. (default 8192)
-gpgpu_shader_cta                       8 # Maximum number of concurrent CTAs in shader (default 8)
-gpgpu_num_cta_barriers                   16 # Maximum number of named barriers per CTA (default 16)
-gpgpu_n_clusters                      15 # number of processing clusters
-gpgpu_n_cores_per_cluster                    1 # number of simd cores per cluster
-gpgpu_n_cluster_ejection_buffer_size                    8 # number of packets in ejection buffer
-gpgpu_n_ldst_response_buffer_size                    2 # number of response packets in ld/st unit ejection buffer
-gpgpu_shmem_size                   16384 # Size of shared memory per shader core (default 16kB)
-gpgpu_shmem_size                   49152 # Size of shared memory per shader core (default 16kB)
-gpgpu_shmem_size_PrefL1                16384 # Size of shared memory per shader core (default 16kB)
-gpgpu_shmem_size_PrefShared                16384 # Size of shared memory per shader core (default 16kB)
-gpgpu_shmem_num_banks                   32 # Number of banks in the shared memory in each shader core (default 16)
-gpgpu_shmem_limited_broadcast                    0 # Limit shared memory to do one broadcast per cycle (default on)
-gpgpu_shmem_warp_parts                    1 # Number of portions a warp is divided into for shared memory bank conflict check 
-gpgpu_warpdistro_shader                   -1 # Specify which shader core to collect the warp size distribution from
-gpgpu_warp_issue_shader                    0 # Specify which shader core to collect the warp issue distribution from
-gpgpu_local_mem_map                    1 # Mapping from local memory space address to simulated GPU physical address space (default = enabled)
-gpgpu_num_reg_banks                   16 # Number of register banks (default = 8)
-gpgpu_reg_bank_use_warp_id                    0 # Use warp ID in mapping registers to banks (default = off)
-gpgpu_operand_collector_num_units_sp                    6 # number of collector units (default = 4)
-gpgpu_operand_collector_num_units_sfu                    8 # number of collector units (default = 4)
-gpgpu_operand_collector_num_units_mem                    2 # number of collector units (default = 2)
-gpgpu_operand_collector_num_units_gen                    0 # number of collector units (default = 0)
-gpgpu_operand_collector_num_in_ports_sp                    2 # number of collector unit in ports (default = 1)
-gpgpu_operand_collector_num_in_ports_sfu                    1 # number of collector unit in ports (default = 1)
-gpgpu_operand_collector_num_in_ports_mem                    1 # number of collector unit in ports (default = 1)
-gpgpu_operand_collector_num_in_ports_gen                    0 # number of collector unit in ports (default = 0)
-gpgpu_operand_collector_num_out_ports_sp                    2 # number of collector unit in ports (default = 1)
-gpgpu_operand_collector_num_out_ports_sfu                    1 # number of collector unit in ports (default = 1)
-gpgpu_operand_collector_num_out_ports_mem                    1 # number of collector unit in ports (default = 1)
-gpgpu_operand_collector_num_out_ports_gen                    0 # number of collector unit in ports (default = 0)
-gpgpu_coalesce_arch                   13 # Coalescing arch (default = 13, anything else is off for now)
-gpgpu_num_sched_per_core                    2 # Number of warp schedulers per core
-gpgpu_max_insn_issue_per_warp                    1 # Max number of instructions that can be issued per warp in one cycle by scheduler
-gpgpu_simt_core_sim_order                    1 # Select the simulation order of cores in a cluster (0=Fix, 1=Round-Robin)
-gpgpu_pipeline_widths        2,1,1,2,1,1,2 # Pipeline widths ID_OC_SP,ID_OC_SFU,ID_OC_MEM,OC_EX_SP,OC_EX_SFU,OC_EX_MEM,EX_WB
-gpgpu_num_sp_units                     2 # Number of SP units (default=1)
-gpgpu_num_sfu_units                    1 # Number of SF units (default=1)
-gpgpu_num_mem_units                    1 # Number if ldst units (default=1) WARNING: not hooked up to anything
-gpgpu_scheduler                      gto # Scheduler configuration: < lrr | gto | two_level_active > If two_level_active:<num_active_warps>:<inner_prioritization>:<outer_prioritization>For complete list of prioritization values see shader.h enum scheduler_prioritization_typeDefault: gto
-gpgpu_dram_scheduler                    1 # 0 = fifo, 1 = FR-FCFS (defaul)
-gpgpu_dram_partition_queues              8:8:8:8 # i2$:$2d:d2$:$2i
-l2_ideal                               0 # Use a ideal L2 cache that always hit
-gpgpu_cache:dl2     64:128:8,L:B:m:W:L,A:32:4,4:0,32 # unified banked L2 data cache config  {<nsets>:<bsize>:<assoc>,<rep>:<wr>:<alloc>:<wr_alloc>,<mshr>:<N>:<merge>,<mq>}
-gpgpu_cache:dl2_texture_only                    0 # L2 cache used for texture only
-gpgpu_n_mem                            6 # number of memory modules (e.g. memory controllers) in gpu
-gpgpu_n_sub_partition_per_mchannel                    2 # number of memory subpartition in each memory module
-gpgpu_n_mem_per_ctrlr                    2 # number of memory chips per memory controller
-gpgpu_memlatency_stat                   14 # track and display latency statistics 0x2 enables MC, 0x4 enables queue logs
-gpgpu_frfcfs_dram_sched_queue_size                   16 # 0 = unlimited (default); # entries per chip
-gpgpu_dram_return_queue_size                  116 # 0 = unlimited (default); # entries per chip
-gpgpu_dram_buswidth                    4 # default = 4 bytes (8 bytes per cycle at DDR)
-gpgpu_dram_burst_length                    8 # Burst length of each DRAM request (default = 4 data bus cycle)
-dram_data_command_freq_ratio                    4 # Frequency ratio between DRAM data bus and command bus (default = 2 times, i.e. DDR)
-gpgpu_dram_timing_opt nbk=16:CCD=2:RRD=6:RCD=12:RAS=28:RP=12:RC=40: CL=12:WL=4:CDLR=5:WR=12:nbkgrp=4:CCDL=3:RTPL=2 # DRAM timing parameters = {nbk:tCCD:tRRD:tRCD:tRAS:tRP:tRC:CL:WL:tCDLR:tWR:nbkgrp:tCCDL:tRTPL}
-rop_latency                          120 # ROP queue latency (default 85)
-dram_latency                         100 # DRAM latency (default 30)
-gpgpu_mem_addr_mapping dramid@8;00000000.00000000.00000000.00000000.0000RRRR.RRRRRRRR.BBBCCCCB.CCSSSSSS # mapping memory address to dram model {dramid@<start bit>;<memory address map>}
-gpgpu_mem_addr_test                    0 # run sweep test to check address mapping for aliased address
-gpgpu_mem_address_mask                    1 # 0 = old addressing mask, 1 = new addressing mask, 2 = new add. mask + flipped bank sel and chip sel bits
-gpuwattch_xml_file  gpuwattch_gtx480.xml # GPUWattch XML file
-power_simulation_enabled                    1 # Turn on power simulator (1=On, 0=Off)
-power_per_cycle_dump                    0 # Dump detailed power output each cycle
-power_trace_enabled                    0 # produce a file for the power trace (1=On, 0=Off)
-power_trace_zlevel                     6 # Compression level of the power trace output log (0=no comp, 9=highest)
-steady_power_levels_enabled                    0 # produce a file for the steady power levels (1=On, 0=Off)
-steady_state_definition                  8:4 # allowed deviation:number of samples
-gpgpu_max_cycle                        0 # terminates gpu simulation early (0 = no limit)
-gpgpu_max_insn                         0 # terminates gpu simulation early (0 = no limit)
-gpgpu_max_cta                          0 # terminates gpu simulation early (0 = no limit)
-gpgpu_runtime_stat                   500 # display runtime statistics such as dram utilization {<freq>:<flag>}
-liveness_message_freq                    1 # Minimum number of seconds between simulation liveness messages (0 = always print)
-gpgpu_flush_l1_cache                    0 # Flush L1 cache at the end of each kernel call
-gpgpu_flush_l2_cache                    0 # Flush L2 cache at the end of each kernel call
-gpgpu_deadlock_detect                    1 # Stop the simulation at deadlock (1=on (default), 0=off)
-gpgpu_ptx_instruction_classification                    0 # if enabled will classify ptx instruction types per kernel (Max 255 kernels now)
-gpgpu_ptx_sim_mode                     0 # Select between Performance (default) or Functional simulation (1)
-gpgpu_clock_domains 700.0:700.0:700.0:924.0 # Clock Domain Frequencies in MhZ {<Core Clock>:<ICNT Clock>:<L2 Clock>:<DRAM Clock>}
-gpgpu_max_concurrent_kernel                    8 # maximum kernels that can run concurrently on GPU
-gpgpu_cflog_interval                    0 # Interval between each snapshot in control flow logger
-visualizer_enabled                     0 # Turn on visualizer output (1=On, 0=Off)
-visualizer_outputfile                 NULL # Specifies the output log file for visualizer
-visualizer_zlevel                      6 # Compression level of the visualizer output log (0=no comp, 9=highest)
-trace_enabled                          0 # Turn on traces
-trace_components                    none # comma seperated list of traces to enable. Complete list found in trace_streams.tup. Default none
-trace_sampling_core                    0 # The core which is printed using CORE_DPRINTF. Default 0
-trace_sampling_memory_partition                   -1 # The memory partition which is printed using MEMPART_DPRINTF. Default -1 (i.e. all)
-enable_ptx_file_line_stats                    1 # Turn on PTX source line statistic profiling. (1 = On)
-ptx_line_stats_filename gpgpu_inst_stats.txt # Output file for PTX source line statistics.
-save_embedded_ptx                      0 # saves ptx files embedded in binary as <n>.ptx
-keep                                   0 # keep intermediate files created by GPGPU-Sim when interfacing with external programs
-gpgpu_ptx_save_converted_ptxplus                    0 # Saved converted ptxplus to a file
-ptx_opcode_latency_int         4,13,4,5,145 # Opcode latencies for integers <ADD,MAX,MUL,MAD,DIV>Default 1,1,19,25,145
-ptx_opcode_latency_fp          4,13,4,5,39 # Opcode latencies for single precision floating points <ADD,MAX,MUL,MAD,DIV>Default 1,1,1,1,30
-ptx_opcode_latency_dp         8,19,8,8,330 # Opcode latencies for double precision floating points <ADD,MAX,MUL,MAD,DIV>Default 8,8,8,8,335
-ptx_opcode_initiation_int            1,2,2,1,8 # Opcode initiation intervals for integers <ADD,MAX,MUL,MAD,DIV>Default 1,1,4,4,32
-ptx_opcode_initiation_fp            1,2,1,1,4 # Opcode initiation intervals for single precision floating points <ADD,MAX,MUL,MAD,DIV>Default 1,1,1,1,5
-ptx_opcode_initiation_dp         8,16,8,8,130 # Opcode initiation intervals for double precision floating points <ADD,MAX,MUL,MAD,DIV>Default 8,8,8,8,130
DRAM Timing Options:
nbk                                    16 # number of banks
CCD                                     2 # column to column delay
RRD                                     6 # minimal delay between activation of rows in different banks
RCD                                    12 # row to column delay
RAS                                    28 # time needed to activate row
RP                                     12 # time needed to precharge (deactivate) row
RC                                     40 # row cycle time
CDLR                                    5 # switching from write to read (changes tWTR)
WR                                     12 # last data-in to row precharge
CL                                     12 # CAS latency
WL                                      4 # Write latency
nbkgrp                                  4 # number of bank groups
CCDL                                    3 # column to column delay between accesses to different bank groups
RTPL                                    2 # read to precharge delay between accesses to different bank groups
Total number of memory sub partition = 12
addr_dec_mask[CHIP]  = 0000000000000000 	high:64 low:0
addr_dec_mask[BK]    = 000000000000e100 	high:16 low:8
addr_dec_mask[ROW]   = 000000000fff0000 	high:28 low:16
addr_dec_mask[COL]   = 0000000000001eff 	high:13 low:0
addr_dec_mask[BURST] = 000000000000003f 	high:6 low:0
sub_partition_id_mask = 0000000000000100
GPGPU-Sim uArch: clock freqs: 700000000.000000:700000000.000000:700000000.000000:924000000.000000
GPGPU-Sim uArch: clock periods: 0.00000000142857142857:0.00000000142857142857:0.00000000142857142857:0.00000000108225108225
*** Initializing Memory Statistics ***
GPGPU-Sim uArch: interconnect node map (shaderID+MemID to icntID)
GPGPU-Sim uArch: Memory nodes ID start from index: 15
GPGPU-Sim uArch:    0   1   2   3   4
GPGPU-Sim uArch:    5   6   7   8   9
GPGPU-Sim uArch:   10  11  12  13  14
GPGPU-Sim uArch:   15  16  17  18  19
GPGPU-Sim uArch:   20  21  22  23  24
GPGPU-Sim uArch:   25  26
GPGPU-Sim uArch: interconnect node reverse map (icntID to shaderID+MemID)
GPGPU-Sim uArch: Memory nodes start from ID: 15
GPGPU-Sim uArch:    0   1   2   3   4
GPGPU-Sim uArch:    5   6   7   8   9
GPGPU-Sim uArch:   10  11  12  13  14
GPGPU-Sim uArch:   15  16  17  18  19
GPGPU-Sim uArch:   20  21  22  23  24
GPGPU-Sim uArch:   25  26
6301c61be597335677a684db17935111  /home/min/a/gupta286/ece695_ftc/gpgpusim-workloads/matrixMulOpt/matrixMul
GPGPU-Sim uArch: performance model initialization complete.
GPGPU-Sim PTX: __cudaRegisterFatBinary, fat_cubin_handle = 1, filename=matrixMul.cu
self exe links to: /home/min/a/gupta286/ece695_ftc/gpgpusim-workloads/matrixMulOpt/matrixMul
Running md5sum using "md5sum /home/min/a/gupta286/ece695_ftc/gpgpusim-workloads/matrixMulOpt/matrixMul "
Running cuobjdump using "$CUDA_INSTALL_PATH/bin/cuobjdump -ptx -elf -sass /home/min/a/gupta286/ece695_ftc/gpgpusim-workloads/matrixMulOpt/matrixMul > _cuobjdump_complete_output_gg3K7H"
Parsing file _cuobjdump_complete_output_gg3K7H
######### cuobjdump parser ########
## Adding new section ELF
Adding arch: sm_20
Adding identifier: matrixMul.cu
## Adding new section PTX
Adding ptx filename: _cuobjdump_1.ptx
Adding arch: sm_20
Adding identifier: matrixMul.cu
Done parsing!!!
GPGPU-Sim PTX: __cudaRegisterFunction _Z12matrixMulGPUPiS_S_i : hostFun 0x0x401226, fat_cubin_handle = 1
DEBUG File name parsing 2 = test.ptx
GPGPU-Sim PTX: overriding embedded ptx with 'test.ptx' (PTX_SIM_USE_PTX_FILE is set)
GPGPU-Sim PTX: allocating shared region for "__cuda_local_var_16200_38_non_const_As" from 0x0 to 0x400 (shared memory space)
GPGPU-Sim PTX: allocating shared region for "__cuda_local_var_16204_38_non_const_Bs" from 0x400 to 0x800 (shared memory space)
GPGPU-Sim PTX: instruction assembly for function '_Z12matrixMulGPUPiS_S_i'...   done.
GPGPU-Sim PTX: finding reconvergence points for '_Z12matrixMulGPUPiS_S_i'...
GPGPU-Sim PTX: Finding dominators for '_Z12matrixMulGPUPiS_S_i'...
GPGPU-Sim PTX: Finding immediate dominators for '_Z12matrixMulGPUPiS_S_i'...
GPGPU-Sim PTX: Finding postdominators for '_Z12matrixMulGPUPiS_S_i'...
GPGPU-Sim PTX: Finding immediate postdominators for '_Z12matrixMulGPUPiS_S_i'...
GPGPU-Sim PTX: pre-decoding instructions for '_Z12matrixMulGPUPiS_S_i'...
GPGPU-Sim PTX: reconvergence points for _Z12matrixMulGPUPiS_S_i...
GPGPU-Sim PTX:  1 (potential) branch divergence @  PC=0x078 (_1.ptx:52) @%p1 bra BB0_3;
GPGPU-Sim PTX:    immediate post dominator      @  PC=0x308 (_1.ptx:152) mov.u32 %r122, %ctaid.y;
GPGPU-Sim PTX:  2 (potential) branch divergence @  PC=0x2f0 (_1.ptx:144) @%p2 bra BB0_2;
GPGPU-Sim PTX:    immediate post dominator      @  PC=0x2f8 (_1.ptx:145) bra.uni BB0_4;
GPGPU-Sim PTX:  3 (potential) branch divergence @  PC=0x2f8 (_1.ptx:145) bra.uni BB0_4;
GPGPU-Sim PTX:    immediate post dominator      @  PC=0x308 (_1.ptx:152) mov.u32 %r122, %ctaid.y;
GPGPU-Sim PTX: ... end of reconvergence points for _Z12matrixMulGPUPiS_S_i
GPGPU-Sim PTX: ... done pre-decoding instructions for '_Z12matrixMulGPUPiS_S_i'.
GPGPU-Sim PTX: finished parsing EMBEDDED .ptx file _1.ptx
Adding _cuobjdump_1.ptx with cubin handle 1
GPGPU-Sim PTX: extracting embedded .ptx to temporary file "_ptx_BuyFxX"
Running: cat _ptx_BuyFxX | sed 's/.version 1.5/.version 1.4/' | sed '/addk_k/d' | sed 's/_quadi//' | sed 's/, texmode_independent//' | sed 's/\(\.extern \.const\[1\] .b8 \w\+\)\[\]/\1\[1\]/' | sed 's/const\[.\]/const\[0\]/g' > _ptx2_6iIWZc
GPGPU-Sim PTX: generating ptxinfo using "$CUDA_INSTALL_PATH/bin/ptxas --gpu-name=sm_20 -v _ptx2_6iIWZc --output-file  /dev/null 2> _ptx_BuyFxXinfo"
GPGPU-Sim PTX: Kernel '_Z12matrixMulGPUPiS_S_i' : regs=26, lmem=0, smem=2048, cmem=60
GPGPU-Sim PTX: removing ptxinfo using "rm -f _ptx_BuyFxX _ptx2_6iIWZc _ptx_BuyFxXinfo"
GPGPU-Sim PTX: loading globals with explicit initializers... 
GPGPU-Sim PTX: finished loading globals (0 bytes total).
GPGPU-Sim PTX: loading constants with explicit initializers...  done.

GPGPU-Sim PTX: cudaLaunch for 0x0x401226 (mode=performance simulation) on stream 0
GPGPU-Sim PTX: pushing kernel '_Z12matrixMulGPUPiS_S_i' to stream 0, gridDim= (16,16,1) blockDim = (16,16,1) 
kernel '_Z12matrixMulGPUPiS_S_i' transfer to GPU hardware scheduler
GPGPU-Sim uArch: Shader 1 bind to kernel 1 '_Z12matrixMulGPUPiS_S_i'
GPGPU-Sim uArch: CTA/core = 4, limited by: regs
GPGPU-Sim uArch: core:  1, cta: 0 initialized @(1,0)
GPGPU-Sim uArch: Shader 2 bind to kernel 1 '_Z12matrixMulGPUPiS_S_i'
GPGPU-Sim uArch: core:  2, cta: 0 initialized @(1,0)
GPGPU-Sim uArch: Shader 3 bind to kernel 1 '_Z12matrixMulGPUPiS_S_i'
GPGPU-Sim uArch: core:  3, cta: 0 initialized @(1,0)
GPGPU-Sim uArch: Shader 4 bind to kernel 1 '_Z12matrixMulGPUPiS_S_i'
GPGPU-Sim uArch: core:  4, cta: 0 initialized @(1,0)
GPGPU-Sim uArch: Shader 5 bind to kernel 1 '_Z12matrixMulGPUPiS_S_i'
GPGPU-Sim uArch: core:  5, cta: 0 initialized @(1,0)
GPGPU-Sim uArch: Shader 6 bind to kernel 1 '_Z12matrixMulGPUPiS_S_i'
GPGPU-Sim uArch: core:  6, cta: 0 initialized @(1,0)
GPGPU-Sim uArch: Shader 7 bind to kernel 1 '_Z12matrixMulGPUPiS_S_i'
GPGPU-Sim uArch: core:  7, cta: 0 initialized @(1,0)
GPGPU-Sim uArch: Shader 8 bind to kernel 1 '_Z12matrixMulGPUPiS_S_i'
GPGPU-Sim uArch: core:  8, cta: 0 initialized @(1,0)
GPGPU-Sim uArch: Shader 9 bind to kernel 1 '_Z12matrixMulGPUPiS_S_i'
GPGPU-Sim uArch: core:  9, cta: 0 initialized @(1,0)
GPGPU-Sim uArch: Shader 10 bind to kernel 1 '_Z12matrixMulGPUPiS_S_i'
GPGPU-Sim uArch: core: 10, cta: 0 initialized @(1,0)
GPGPU-Sim uArch: Shader 11 bind to kernel 1 '_Z12matrixMulGPUPiS_S_i'
GPGPU-Sim uArch: core: 11, cta: 0 initialized @(1,0)
GPGPU-Sim uArch: Shader 12 bind to kernel 1 '_Z12matrixMulGPUPiS_S_i'
GPGPU-Sim uArch: core: 12, cta: 0 initialized @(1,0)
GPGPU-Sim uArch: Shader 13 bind to kernel 1 '_Z12matrixMulGPUPiS_S_i'
GPGPU-Sim uArch: core: 13, cta: 0 initialized @(1,0)
GPGPU-Sim uArch: Shader 14 bind to kernel 1 '_Z12matrixMulGPUPiS_S_i'
GPGPU-Sim uArch: core: 14, cta: 0 initialized @(1,0)
GPGPU-Sim uArch: Shader 0 bind to kernel 1 '_Z12matrixMulGPUPiS_S_i'
GPGPU-Sim uArch: core:  0, cta: 0 initialized @(1,0)
GPGPU-Sim uArch: core:  1, cta: 1 initialized @(2,0)
GPGPU-Sim uArch: core:  2, cta: 1 initialized @(2,0)
GPGPU-Sim uArch: core:  3, cta: 1 initialized @(2,0)
GPGPU-Sim uArch: core:  4, cta: 1 initialized @(2,0)
GPGPU-Sim uArch: core:  5, cta: 1 initialized @(2,0)
GPGPU-Sim uArch: core:  6, cta: 1 initialized @(2,0)
GPGPU-Sim uArch: core:  7, cta: 1 initialized @(2,0)
GPGPU-Sim uArch: core:  8, cta: 1 initialized @(2,0)
GPGPU-Sim uArch: core:  9, cta: 1 initialized @(2,0)
GPGPU-Sim uArch: core: 10, cta: 1 initialized @(2,0)
GPGPU-Sim uArch: core: 11, cta: 1 initialized @(2,0)
GPGPU-Sim uArch: core: 12, cta: 1 initialized @(2,0)
GPGPU-Sim uArch: core: 13, cta: 1 initialized @(2,0)
GPGPU-Sim uArch: core: 14, cta: 1 initialized @(2,0)
GPGPU-Sim uArch: core:  0, cta: 1 initialized @(2,0)
GPGPU-Sim uArch: core:  1, cta: 2 initialized @(3,0)
GPGPU-Sim uArch: core:  2, cta: 2 initialized @(3,0)
GPGPU-Sim uArch: core:  3, cta: 2 initialized @(3,0)
GPGPU-Sim uArch: core:  4, cta: 2 initialized @(3,0)
GPGPU-Sim uArch: core:  5, cta: 2 initialized @(3,0)
GPGPU-Sim uArch: core:  6, cta: 2 initialized @(3,0)
GPGPU-Sim uArch: core:  7, cta: 2 initialized @(3,0)
GPGPU-Sim uArch: core:  8, cta: 2 initialized @(3,0)
GPGPU-Sim uArch: core:  9, cta: 2 initialized @(3,0)
GPGPU-Sim uArch: core: 10, cta: 2 initialized @(3,0)
GPGPU-Sim uArch: core: 11, cta: 2 initialized @(3,0)
GPGPU-Sim uArch: core: 12, cta: 2 initialized @(3,0)
GPGPU-Sim uArch: core: 13, cta: 2 initialized @(3,0)
GPGPU-Sim uArch: core: 14, cta: 2 initialized @(3,0)
GPGPU-Sim uArch: core:  0, cta: 2 initialized @(3,0)
GPGPU-Sim uArch: core:  1, cta: 3 initialized @(4,0)
GPGPU-Sim uArch: core:  2, cta: 3 initialized @(4,0)
GPGPU-Sim uArch: core:  3, cta: 3 initialized @(4,0)
GPGPU-Sim uArch: core:  4, cta: 3 initialized @(4,0)
GPGPU-Sim uArch: core:  5, cta: 3 initialized @(4,0)
GPGPU-Sim uArch: core:  6, cta: 3 initialized @(4,0)
GPGPU-Sim uArch: core:  7, cta: 3 initialized @(4,0)
GPGPU-Sim uArch: core:  8, cta: 3 initialized @(4,0)
GPGPU-Sim uArch: core:  9, cta: 3 initialized @(4,0)
GPGPU-Sim uArch: core: 10, cta: 3 initialized @(4,0)
GPGPU-Sim uArch: core: 11, cta: 3 initialized @(4,0)
GPGPU-Sim uArch: core: 12, cta: 3 initialized @(4,0)
GPGPU-Sim uArch: core: 13, cta: 3 initialized @(4,0)
GPGPU-Sim uArch: core: 14, cta: 3 initialized @(4,0)
GPGPU-Sim uArch: core:  0, cta: 3 initialized @(4,0)
GPGPU-Sim uArch: cycles simulated: 500  inst.: 0 (ipc= 0.0) sim_rate=0 (inst/sec) elapsed = 0:0:00:01 / Fri Dec 16 02:51:51 2016
GPGPU-Sim PTX: 100000 instructions simulated : ctaid=(15,1,0) tid=(15,1,0)
GPGPU-Sim PTX: 200000 instructions simulated : ctaid=(5,3,0) tid=(15,13,0)
GPGPU-Sim PTX: 300000 instructions simulated : ctaid=(3,2,0) tid=(15,3,0)
GPGPU-Sim PTX: 400000 instructions simulated : ctaid=(5,1,0) tid=(15,15,0)
GPGPU-Sim PTX: 500000 instructions simulated : ctaid=(4,1,0) tid=(15,3,0)
GPGPU-Sim uArch: cycles simulated: 3000  inst.: 549248 (ipc=183.1) sim_rate=274624 (inst/sec) elapsed = 0:0:00:02 / Fri Dec 16 02:51:53 2016
GPGPU-Sim PTX: 600000 instructions simulated : ctaid=(8,1,0) tid=(15,5,0)
GPGPU-Sim PTX: 700000 instructions simulated : ctaid=(15,0,0) tid=(15,1,0)
GPGPU-Sim uArch: cycles simulated: 5500  inst.: 735744 (ipc=133.8) sim_rate=245248 (inst/sec) elapsed = 0:0:00:03 / Fri Dec 16 02:51:54 2016
GPGPU-Sim PTX: 800000 instructions simulated : ctaid=(7,1,0) tid=(15,1,0)
GPGPU-Sim PTX: 900000 instructions simulated : ctaid=(3,0,0) tid=(15,3,0)
GPGPU-Sim PTX: 1000000 instructions simulated : ctaid=(8,0,0) tid=(15,13,0)
GPGPU-Sim PTX: 1100000 instructions simulated : ctaid=(12,0,0) tid=(15,5,0)
GPGPU-Sim PTX: 1200000 instructions simulated : ctaid=(3,2,0) tid=(15,9,0)
GPGPU-Sim PTX: 1300000 instructions simulated : ctaid=(1,0,0) tid=(15,15,0)
GPGPU-Sim uArch: cycles simulated: 8500  inst.: 1313216 (ipc=154.5) sim_rate=328304 (inst/sec) elapsed = 0:0:00:04 / Fri Dec 16 02:51:55 2016
GPGPU-Sim PTX: 1400000 instructions simulated : ctaid=(8,1,0) tid=(15,13,0)
GPGPU-Sim PTX: 1500000 instructions simulated : ctaid=(8,1,0) tid=(15,13,0)
GPGPU-Sim PTX: 1600000 instructions simulated : ctaid=(6,1,0) tid=(15,11,0)
GPGPU-Sim PTX: 1700000 instructions simulated : ctaid=(3,0,0) tid=(15,13,0)
GPGPU-Sim uArch: cycles simulated: 10500  inst.: 1704608 (ipc=162.3) sim_rate=340921 (inst/sec) elapsed = 0:0:00:05 / Fri Dec 16 02:51:56 2016
GPGPU-Sim PTX: 1800000 instructions simulated : ctaid=(7,1,0) tid=(15,15,0)
GPGPU-Sim PTX: 1900000 instructions simulated : ctaid=(10,0,0) tid=(15,3,0)
GPGPU-Sim PTX: 2000000 instructions simulated : ctaid=(2,0,0) tid=(15,7,0)
GPGPU-Sim PTX: 2100000 instructions simulated : ctaid=(5,1,0) tid=(15,11,0)
GPGPU-Sim PTX: 2200000 instructions simulated : ctaid=(14,0,0) tid=(15,15,0)
GPGPU-Sim uArch: cycles simulated: 13000  inst.: 2212480 (ipc=170.2) sim_rate=368746 (inst/sec) elapsed = 0:0:00:06 / Fri Dec 16 02:51:57 2016
GPGPU-Sim PTX: 2300000 instructions simulated : ctaid=(11,3,0) tid=(15,3,0)
GPGPU-Sim PTX: 2400000 instructions simulated : ctaid=(3,1,0) tid=(15,11,0)
GPGPU-Sim PTX: 2500000 instructions simulated : ctaid=(0,1,0) tid=(15,11,0)
GPGPU-Sim PTX: 2600000 instructions simulated : ctaid=(7,0,0) tid=(15,5,0)
GPGPU-Sim PTX: 2700000 instructions simulated : ctaid=(9,0,0) tid=(15,15,0)
GPGPU-Sim uArch: cycles simulated: 15500  inst.: 2694752 (ipc=173.9) sim_rate=384964 (inst/sec) elapsed = 0:0:00:07 / Fri Dec 16 02:51:58 2016
GPGPU-Sim PTX: 2800000 instructions simulated : ctaid=(12,0,0) tid=(15,15,0)
GPGPU-Sim PTX: 2900000 instructions simulated : ctaid=(8,0,0) tid=(15,9,0)
GPGPU-Sim PTX: 3000000 instructions simulated : ctaid=(8,0,0) tid=(15,3,0)
GPGPU-Sim PTX: 3100000 instructions simulated : ctaid=(9,2,0) tid=(15,5,0)
GPGPU-Sim PTX: 3200000 instructions simulated : ctaid=(6,1,0) tid=(15,9,0)
GPGPU-Sim uArch: cycles simulated: 18000  inst.: 3220352 (ipc=178.9) sim_rate=402544 (inst/sec) elapsed = 0:0:00:08 / Fri Dec 16 02:51:59 2016
GPGPU-Sim PTX: 3300000 instructions simulated : ctaid=(6,2,0) tid=(15,5,0)
GPGPU-Sim PTX: 3400000 instructions simulated : ctaid=(5,1,0) tid=(15,9,0)
GPGPU-Sim PTX: 3500000 instructions simulated : ctaid=(5,1,0) tid=(15,7,0)
GPGPU-Sim PTX: 3600000 instructions simulated : ctaid=(13,1,0) tid=(15,9,0)
GPGPU-Sim PTX: 3700000 instructions simulated : ctaid=(8,0,0) tid=(15,15,0)
GPGPU-Sim uArch: cycles simulated: 20500  inst.: 3699072 (ipc=180.4) sim_rate=411008 (inst/sec) elapsed = 0:0:00:09 / Fri Dec 16 02:52:00 2016
GPGPU-Sim PTX: 3800000 instructions simulated : ctaid=(10,2,0) tid=(15,13,0)
GPGPU-Sim PTX: 3900000 instructions simulated : ctaid=(1,1,0) tid=(15,7,0)
GPGPU-Sim PTX: 4000000 instructions simulated : ctaid=(0,0,0) tid=(15,5,0)
GPGPU-Sim PTX: 4100000 instructions simulated : ctaid=(13,0,0) tid=(15,1,0)
GPGPU-Sim PTX: 4200000 instructions simulated : ctaid=(8,0,0) tid=(15,9,0)
GPGPU-Sim uArch: cycles simulated: 23000  inst.: 4216928 (ipc=183.3) sim_rate=421692 (inst/sec) elapsed = 0:0:00:10 / Fri Dec 16 02:52:01 2016
GPGPU-Sim PTX: 4300000 instructions simulated : ctaid=(0,1,0) tid=(15,9,0)
GPGPU-Sim PTX: 4400000 instructions simulated : ctaid=(8,0,0) tid=(15,13,0)
GPGPU-Sim PTX: 4500000 instructions simulated : ctaid=(13,1,0) tid=(15,13,0)
GPGPU-Sim PTX: 4600000 instructions simulated : ctaid=(13,0,0) tid=(15,7,0)
GPGPU-Sim uArch: cycles simulated: 25000  inst.: 4603104 (ipc=184.1) sim_rate=418464 (inst/sec) elapsed = 0:0:00:11 / Fri Dec 16 02:52:02 2016
GPGPU-Sim PTX: 4700000 instructions simulated : ctaid=(6,0,0) tid=(15,5,0)
GPGPU-Sim PTX: 4800000 instructions simulated : ctaid=(1,0,0) tid=(15,5,0)
GPGPU-Sim PTX: 4900000 instructions simulated : ctaid=(9,0,0) tid=(15,11,0)
GPGPU-Sim PTX: 5000000 instructions simulated : ctaid=(9,1,0) tid=(15,11,0)
GPGPU-Sim PTX: 5100000 instructions simulated : ctaid=(9,1,0) tid=(15,3,0)
GPGPU-Sim uArch: cycles simulated: 27500  inst.: 5118336 (ipc=186.1) sim_rate=426528 (inst/sec) elapsed = 0:0:00:12 / Fri Dec 16 02:52:03 2016
GPGPU-Sim PTX: 5200000 instructions simulated : ctaid=(3,1,0) tid=(15,11,0)
GPGPU-Sim PTX: 5300000 instructions simulated : ctaid=(4,1,0) tid=(15,7,0)
GPGPU-Sim PTX: 5400000 instructions simulated : ctaid=(2,3,0) tid=(15,9,0)
GPGPU-Sim PTX: 5500000 instructions simulated : ctaid=(8,0,0) tid=(15,11,0)
GPGPU-Sim PTX: 5600000 instructions simulated : ctaid=(5,0,0) tid=(15,11,0)
GPGPU-Sim uArch: cycles simulated: 30000  inst.: 5593728 (ipc=186.5) sim_rate=430286 (inst/sec) elapsed = 0:0:00:13 / Fri Dec 16 02:52:04 2016
GPGPU-Sim PTX: 5700000 instructions simulated : ctaid=(4,1,0) tid=(15,1,0)
GPGPU-Sim PTX: 5800000 instructions simulated : ctaid=(2,2,0) tid=(15,15,0)
GPGPU-Sim PTX: 5900000 instructions simulated : ctaid=(8,0,0) tid=(15,1,0)
GPGPU-Sim PTX: 6000000 instructions simulated : ctaid=(10,0,0) tid=(15,11,0)
GPGPU-Sim PTX: 6100000 instructions simulated : ctaid=(11,2,0) tid=(15,7,0)
GPGPU-Sim uArch: cycles simulated: 32500  inst.: 6124480 (ipc=188.4) sim_rate=437462 (inst/sec) elapsed = 0:0:00:14 / Fri Dec 16 02:52:05 2016
GPGPU-Sim PTX: 6200000 instructions simulated : ctaid=(11,2,0) tid=(15,5,0)
GPGPU-Sim PTX: 6300000 instructions simulated : ctaid=(12,1,0) tid=(15,1,0)
GPGPU-Sim PTX: 6400000 instructions simulated : ctaid=(5,2,0) tid=(15,11,0)
GPGPU-Sim PTX: 6500000 instructions simulated : ctaid=(4,1,0) tid=(15,15,0)
GPGPU-Sim PTX: 6600000 instructions simulated : ctaid=(9,1,0) tid=(15,3,0)
GPGPU-Sim uArch: cycles simulated: 35000  inst.: 6610912 (ipc=188.9) sim_rate=440727 (inst/sec) elapsed = 0:0:00:15 / Fri Dec 16 02:52:06 2016
GPGPU-Sim PTX: 6700000 instructions simulated : ctaid=(6,1,0) tid=(15,3,0)
GPGPU-Sim PTX: 6800000 instructions simulated : ctaid=(2,0,0) tid=(15,11,0)
GPGPU-Sim PTX: 6900000 instructions simulated : ctaid=(15,0,0) tid=(15,11,0)
GPGPU-Sim PTX: 7000000 instructions simulated : ctaid=(7,3,0) tid=(15,15,0)
GPGPU-Sim PTX: 7100000 instructions simulated : ctaid=(7,1,0) tid=(15,15,0)
GPGPU-Sim uArch: cycles simulated: 37500  inst.: 7134816 (ipc=190.3) sim_rate=445926 (inst/sec) elapsed = 0:0:00:16 / Fri Dec 16 02:52:07 2016
GPGPU-Sim PTX: 7200000 instructions simulated : ctaid=(12,1,0) tid=(15,9,0)
GPGPU-Sim PTX: 7300000 instructions simulated : ctaid=(10,0,0) tid=(15,1,0)
GPGPU-Sim PTX: 7400000 instructions simulated : ctaid=(2,1,0) tid=(15,3,0)
GPGPU-Sim PTX: 7500000 instructions simulated : ctaid=(11,0,0) tid=(15,1,0)
GPGPU-Sim PTX: 7600000 instructions simulated : ctaid=(8,0,0) tid=(15,13,0)
GPGPU-Sim uArch: cycles simulated: 40000  inst.: 7620096 (ipc=190.5) sim_rate=448240 (inst/sec) elapsed = 0:0:00:17 / Fri Dec 16 02:52:08 2016
GPGPU-Sim PTX: 7700000 instructions simulated : ctaid=(10,0,0) tid=(15,1,0)
GPGPU-Sim PTX: 7800000 instructions simulated : ctaid=(0,0,0) tid=(15,11,0)
GPGPU-Sim PTX: 7900000 instructions simulated : ctaid=(9,2,0) tid=(15,13,0)
GPGPU-Sim uArch: Shader 0 finished CTA #0 (41319,0), 3 CTAs running
GPGPU-Sim uArch: core:  0, cta: 0 initialized @(41320,0)
GPGPU-Sim uArch: Shader 12 finished CTA #0 (41538,0), 3 CTAs running
GPGPU-Sim uArch: core: 12, cta: 0 initialized @(41539,0)
GPGPU-Sim uArch: Shader 4 finished CTA #0 (41544,0), 3 CTAs running
GPGPU-Sim uArch: core:  4, cta: 0 initialized @(41545,0)
GPGPU-Sim PTX: 8000000 instructions simulated : ctaid=(2,0,0) tid=(15,3,0)
GPGPU-Sim uArch: Shader 2 finished CTA #0 (41765,0), 3 CTAs running
GPGPU-Sim uArch: core:  2, cta: 0 initialized @(41766,0)
GPGPU-Sim uArch: Shader 8 finished CTA #0 (41791,0), 3 CTAs running
GPGPU-Sim uArch: Shader 11 finished CTA #0 (41791,0), 3 CTAs running
GPGPU-Sim uArch: core:  8, cta: 0 initialized @(41792,0)
GPGPU-Sim uArch: core: 11, cta: 0 initialized @(41792,0)
GPGPU-Sim uArch: Shader 9 finished CTA #0 (41999,0), 3 CTAs running
GPGPU-Sim uArch: core:  9, cta: 0 initialized @(42000,0)
GPGPU-Sim uArch: cycles simulated: 42000  inst.: 8074528 (ipc=192.3) sim_rate=448584 (inst/sec) elapsed = 0:0:00:18 / Fri Dec 16 02:52:09 2016
GPGPU-Sim PTX: 8100000 instructions simulated : ctaid=(12,1,0) tid=(15,1,0)
GPGPU-Sim uArch: Shader 1 finished CTA #0 (42088,0), 3 CTAs running
GPGPU-Sim uArch: core:  1, cta: 0 initialized @(42089,0)
GPGPU-Sim uArch: Shader 6 finished CTA #0 (42104,0), 3 CTAs running
GPGPU-Sim uArch: core:  6, cta: 0 initialized @(42105,0)
GPGPU-Sim uArch: Shader 10 finished CTA #0 (42161,0), 3 CTAs running
GPGPU-Sim uArch: core: 10, cta: 0 initialized @(42162,0)
GPGPU-Sim uArch: Shader 5 finished CTA #0 (42350,0), 3 CTAs running
GPGPU-Sim uArch: core:  5, cta: 0 initialized @(42351,0)
GPGPU-Sim uArch: Shader 14 finished CTA #0 (42354,0), 3 CTAs running
GPGPU-Sim uArch: core: 14, cta: 0 initialized @(42355,0)
GPGPU-Sim PTX: 8200000 instructions simulated : ctaid=(5,3,0) tid=(15,13,0)
GPGPU-Sim uArch: Shader 3 finished CTA #0 (42665,0), 3 CTAs running
GPGPU-Sim uArch: core:  3, cta: 0 initialized @(42666,0)
GPGPU-Sim uArch: Shader 13 finished CTA #0 (42781,0), 3 CTAs running
GPGPU-Sim uArch: core: 13, cta: 0 initialized @(42782,0)
GPGPU-Sim PTX: 8300000 instructions simulated : ctaid=(9,4,0) tid=(15,1,0)
GPGPU-Sim uArch: Shader 7 finished CTA #0 (42879,0), 3 CTAs running
GPGPU-Sim uArch: core:  7, cta: 0 initialized @(42880,0)
GPGPU-Sim PTX: 8400000 instructions simulated : ctaid=(2,3,0) tid=(15,15,0)
GPGPU-Sim PTX: 8500000 instructions simulated : ctaid=(8,2,0) tid=(15,9,0)
GPGPU-Sim uArch: cycles simulated: 44000  inst.: 8549888 (ipc=194.3) sim_rate=449994 (inst/sec) elapsed = 0:0:00:19 / Fri Dec 16 02:52:10 2016
GPGPU-Sim PTX: 8600000 instructions simulated : ctaid=(8,3,0) tid=(15,11,0)
GPGPU-Sim PTX: 8700000 instructions simulated : ctaid=(11,1,0) tid=(15,1,0)
GPGPU-Sim PTX: 8800000 instructions simulated : ctaid=(5,1,0) tid=(15,15,0)
GPGPU-Sim PTX: 8900000 instructions simulated : ctaid=(6,1,0) tid=(15,5,0)
GPGPU-Sim PTX: 9000000 instructions simulated : ctaid=(0,1,0) tid=(15,7,0)
GPGPU-Sim uArch: cycles simulated: 46500  inst.: 9062368 (ipc=194.9) sim_rate=453118 (inst/sec) elapsed = 0:0:00:20 / Fri Dec 16 02:52:11 2016
GPGPU-Sim PTX: 9100000 instructions simulated : ctaid=(5,2,0) tid=(15,5,0)
GPGPU-Sim PTX: 9200000 instructions simulated : ctaid=(2,1,0) tid=(15,13,0)
GPGPU-Sim PTX: 9300000 instructions simulated : ctaid=(10,4,0) tid=(15,11,0)
GPGPU-Sim PTX: 9400000 instructions simulated : ctaid=(7,1,0) tid=(15,7,0)
GPGPU-Sim PTX: 9500000 instructions simulated : ctaid=(5,3,0) tid=(15,11,0)
GPGPU-Sim uArch: cycles simulated: 48500  inst.: 9494400 (ipc=195.8) sim_rate=452114 (inst/sec) elapsed = 0:0:00:21 / Fri Dec 16 02:52:12 2016
GPGPU-Sim PTX: 9600000 instructions simulated : ctaid=(3,3,0) tid=(15,11,0)
GPGPU-Sim PTX: 9700000 instructions simulated : ctaid=(15,0,0) tid=(15,9,0)
GPGPU-Sim PTX: 9800000 instructions simulated : ctaid=(12,1,0) tid=(15,1,0)
GPGPU-Sim PTX: 9900000 instructions simulated : ctaid=(5,1,0) tid=(15,7,0)
GPGPU-Sim PTX: 10000000 instructions simulated : ctaid=(2,2,0) tid=(15,9,0)
GPGPU-Sim uArch: cycles simulated: 51000  inst.: 9998112 (ipc=196.0) sim_rate=454459 (inst/sec) elapsed = 0:0:00:22 / Fri Dec 16 02:52:13 2016
GPGPU-Sim PTX: 10100000 instructions simulated : ctaid=(14,1,0) tid=(15,3,0)
GPGPU-Sim PTX: 10200000 instructions simulated : ctaid=(15,2,0) tid=(15,11,0)
GPGPU-Sim PTX: 10300000 instructions simulated : ctaid=(9,3,0) tid=(15,11,0)
GPGPU-Sim PTX: 10400000 instructions simulated : ctaid=(12,1,0) tid=(15,5,0)
GPGPU-Sim uArch: cycles simulated: 53000  inst.: 10390624 (ipc=196.0) sim_rate=451766 (inst/sec) elapsed = 0:0:00:23 / Fri Dec 16 02:52:14 2016
GPGPU-Sim PTX: 10500000 instructions simulated : ctaid=(12,1,0) tid=(15,11,0)
GPGPU-Sim PTX: 10600000 instructions simulated : ctaid=(0,1,0) tid=(15,7,0)
GPGPU-Sim PTX: 10700000 instructions simulated : ctaid=(6,1,0) tid=(15,3,0)
GPGPU-Sim PTX: 10800000 instructions simulated : ctaid=(13,1,0) tid=(15,3,0)
GPGPU-Sim PTX: 10900000 instructions simulated : ctaid=(7,2,0) tid=(15,11,0)
GPGPU-Sim uArch: Shader 8 finished CTA #1 (55469,0), 3 CTAs running
GPGPU-Sim uArch: core:  8, cta: 1 initialized @(55470,0)
GPGPU-Sim uArch: cycles simulated: 55500  inst.: 10904864 (ipc=196.5) sim_rate=454369 (inst/sec) elapsed = 0:0:00:24 / Fri Dec 16 02:52:15 2016
GPGPU-Sim uArch: Shader 9 finished CTA #1 (55629,0), 3 CTAs running
GPGPU-Sim uArch: core:  9, cta: 1 initialized @(55630,0)
GPGPU-Sim PTX: 11000000 instructions simulated : ctaid=(0,1,0) tid=(15,13,0)
GPGPU-Sim PTX: 11100000 instructions simulated : ctaid=(1,1,0) tid=(15,3,0)
GPGPU-Sim uArch: Shader 2 finished CTA #1 (56320,0), 3 CTAs running
GPGPU-Sim uArch: core:  2, cta: 1 initialized @(56321,0)
GPGPU-Sim uArch: Shader 14 finished CTA #1 (56620,0), 3 CTAs running
GPGPU-Sim uArch: core: 14, cta: 1 initialized @(56621,0)
GPGPU-Sim PTX: 11200000 instructions simulated : ctaid=(0,2,0) tid=(15,13,0)
GPGPU-Sim uArch: Shader 4 finished CTA #1 (56767,0), 3 CTAs running
GPGPU-Sim uArch: core:  4, cta: 1 initialized @(56768,0)
GPGPU-Sim uArch: Shader 13 finished CTA #1 (56809,0), 3 CTAs running
GPGPU-Sim uArch: core: 13, cta: 1 initialized @(56810,0)
GPGPU-Sim PTX: 11300000 instructions simulated : ctaid=(10,1,0) tid=(15,5,0)
GPGPU-Sim uArch: Shader 10 finished CTA #1 (57433,0), 3 CTAs running
GPGPU-Sim uArch: core: 10, cta: 1 initialized @(57434,0)
GPGPU-Sim uArch: Shader 12 finished CTA #1 (57463,0), 3 CTAs running
GPGPU-Sim uArch: core: 12, cta: 1 initialized @(57464,0)
GPGPU-Sim uArch: cycles simulated: 57500  inst.: 11349984 (ipc=197.4) sim_rate=453999 (inst/sec) elapsed = 0:0:00:25 / Fri Dec 16 02:52:16 2016
GPGPU-Sim PTX: 11400000 instructions simulated : ctaid=(5,2,0) tid=(15,1,0)
GPGPU-Sim uArch: Shader 1 finished CTA #1 (57669,0), 3 CTAs running
GPGPU-Sim uArch: core:  1, cta: 1 initialized @(57670,0)
GPGPU-Sim uArch: Shader 5 finished CTA #1 (57960,0), 3 CTAs running
GPGPU-Sim uArch: core:  5, cta: 1 initialized @(57961,0)
GPGPU-Sim PTX: 11500000 instructions simulated : ctaid=(1,5,0) tid=(15,5,0)
GPGPU-Sim PTX: 11600000 instructions simulated : ctaid=(3,5,0) tid=(15,1,0)
GPGPU-Sim uArch: Shader 6 finished CTA #1 (58611,0), 3 CTAs running
GPGPU-Sim uArch: core:  6, cta: 1 initialized @(58612,0)
GPGPU-Sim PTX: 11700000 instructions simulated : ctaid=(2,2,0) tid=(15,11,0)
GPGPU-Sim uArch: Shader 7 finished CTA #1 (59004,0), 3 CTAs running
GPGPU-Sim uArch: core:  7, cta: 1 initialized @(59005,0)
GPGPU-Sim PTX: 11800000 instructions simulated : ctaid=(4,2,0) tid=(15,3,0)
GPGPU-Sim uArch: Shader 0 finished CTA #1 (59485,0), 3 CTAs running
GPGPU-Sim uArch: core:  0, cta: 1 initialized @(59486,0)
GPGPU-Sim uArch: Shader 11 finished CTA #1 (59555,0), 3 CTAs running
GPGPU-Sim uArch: core: 11, cta: 1 initialized @(59556,0)
GPGPU-Sim PTX: 11900000 instructions simulated : ctaid=(11,2,0) tid=(15,5,0)
GPGPU-Sim uArch: cycles simulated: 60000  inst.: 11911680 (ipc=198.5) sim_rate=458141 (inst/sec) elapsed = 0:0:00:26 / Fri Dec 16 02:52:17 2016
GPGPU-Sim uArch: Shader 3 finished CTA #1 (60193,0), 3 CTAs running
GPGPU-Sim uArch: core:  3, cta: 1 initialized @(60194,0)
GPGPU-Sim PTX: 12000000 instructions simulated : ctaid=(10,3,0) tid=(15,5,0)
GPGPU-Sim PTX: 12100000 instructions simulated : ctaid=(11,2,0) tid=(15,11,0)
GPGPU-Sim PTX: 12200000 instructions simulated : ctaid=(5,2,0) tid=(15,5,0)
GPGPU-Sim PTX: 12300000 instructions simulated : ctaid=(9,4,0) tid=(15,3,0)
GPGPU-Sim uArch: cycles simulated: 62000  inst.: 12351808 (ipc=199.2) sim_rate=457474 (inst/sec) elapsed = 0:0:00:27 / Fri Dec 16 02:52:18 2016
GPGPU-Sim PTX: 12400000 instructions simulated : ctaid=(0,2,0) tid=(15,1,0)
GPGPU-Sim PTX: 12500000 instructions simulated : ctaid=(14,1,0) tid=(15,15,0)
GPGPU-Sim PTX: 12600000 instructions simulated : ctaid=(8,2,0) tid=(15,5,0)
GPGPU-Sim PTX: 12700000 instructions simulated : ctaid=(7,2,0) tid=(15,1,0)
GPGPU-Sim PTX: 12800000 instructions simulated : ctaid=(9,2,0) tid=(15,5,0)
GPGPU-Sim uArch: cycles simulated: 64000  inst.: 12768896 (ipc=199.5) sim_rate=456032 (inst/sec) elapsed = 0:0:00:28 / Fri Dec 16 02:52:19 2016
GPGPU-Sim PTX: 12900000 instructions simulated : ctaid=(13,2,0) tid=(15,3,0)
GPGPU-Sim PTX: 13000000 instructions simulated : ctaid=(4,2,0) tid=(15,11,0)
GPGPU-Sim PTX: 13100000 instructions simulated : ctaid=(7,4,0) tid=(15,11,0)
GPGPU-Sim PTX: 13200000 instructions simulated : ctaid=(2,2,0) tid=(15,1,0)
GPGPU-Sim uArch: cycles simulated: 66500  inst.: 13254144 (ipc=199.3) sim_rate=457039 (inst/sec) elapsed = 0:0:00:29 / Fri Dec 16 02:52:20 2016
GPGPU-Sim PTX: 13300000 instructions simulated : ctaid=(3,2,0) tid=(15,15,0)
GPGPU-Sim PTX: 13400000 instructions simulated : ctaid=(0,2,0) tid=(15,9,0)
GPGPU-Sim PTX: 13500000 instructions simulated : ctaid=(5,4,0) tid=(15,13,0)
GPGPU-Sim PTX: 13600000 instructions simulated : ctaid=(8,3,0) tid=(15,11,0)
GPGPU-Sim PTX: 13700000 instructions simulated : ctaid=(10,2,0) tid=(15,11,0)
GPGPU-Sim uArch: cycles simulated: 69000  inst.: 13759296 (ipc=199.4) sim_rate=458643 (inst/sec) elapsed = 0:0:00:30 / Fri Dec 16 02:52:21 2016
GPGPU-Sim PTX: 13800000 instructions simulated : ctaid=(13,2,0) tid=(15,9,0)
GPGPU-Sim PTX: 13900000 instructions simulated : ctaid=(9,3,0) tid=(15,9,0)
GPGPU-Sim PTX: 14000000 instructions simulated : ctaid=(11,2,0) tid=(15,13,0)
GPGPU-Sim PTX: 14100000 instructions simulated : ctaid=(14,2,0) tid=(15,11,0)
GPGPU-Sim PTX: 14200000 instructions simulated : ctaid=(5,5,0) tid=(15,9,0)
GPGPU-Sim uArch: cycles simulated: 71500  inst.: 14258496 (ipc=199.4) sim_rate=459951 (inst/sec) elapsed = 0:0:00:31 / Fri Dec 16 02:52:22 2016
GPGPU-Sim PTX: 14300000 instructions simulated : ctaid=(1,2,0) tid=(15,1,0)
GPGPU-Sim PTX: 14400000 instructions simulated : ctaid=(13,2,0) tid=(15,11,0)
GPGPU-Sim PTX: 14500000 instructions simulated : ctaid=(14,2,0) tid=(15,1,0)
GPGPU-Sim PTX: 14600000 instructions simulated : ctaid=(13,2,0) tid=(15,15,0)
GPGPU-Sim PTX: 14700000 instructions simulated : ctaid=(4,2,0) tid=(15,1,0)
GPGPU-Sim uArch: cycles simulated: 73500  inst.: 14665664 (ipc=199.5) sim_rate=458302 (inst/sec) elapsed = 0:0:00:32 / Fri Dec 16 02:52:23 2016
GPGPU-Sim PTX: 14800000 instructions simulated : ctaid=(8,3,0) tid=(15,11,0)
GPGPU-Sim uArch: Shader 3 finished CTA #2 (74254,0), 3 CTAs running
GPGPU-Sim uArch: core:  3, cta: 2 initialized @(74255,0)
GPGPU-Sim PTX: 14900000 instructions simulated : ctaid=(5,2,0) tid=(15,1,0)
GPGPU-Sim PTX: 15000000 instructions simulated : ctaid=(2,4,0) tid=(15,3,0)
GPGPU-Sim uArch: Shader 4 finished CTA #2 (75112,0), 3 CTAs running
GPGPU-Sim uArch: core:  4, cta: 2 initialized @(75113,0)
GPGPU-Sim uArch: Shader 7 finished CTA #2 (75163,0), 3 CTAs running
GPGPU-Sim uArch: core:  7, cta: 2 initialized @(75164,0)
GPGPU-Sim uArch: Shader 9 finished CTA #2 (75319,0), 3 CTAs running
GPGPU-Sim uArch: core:  9, cta: 2 initialized @(75320,0)
GPGPU-Sim PTX: 15100000 instructions simulated : ctaid=(5,3,0) tid=(15,7,0)
GPGPU-Sim uArch: Shader 2 finished CTA #2 (75530,0), 3 CTAs running
GPGPU-Sim uArch: core:  2, cta: 2 initialized @(75531,0)
GPGPU-Sim PTX: 15200000 instructions simulated : ctaid=(6,4,0) tid=(15,1,0)
GPGPU-Sim uArch: Shader 6 finished CTA #2 (75918,0), 3 CTAs running
GPGPU-Sim uArch: core:  6, cta: 2 initialized @(75919,0)
GPGPU-Sim uArch: Shader 10 finished CTA #2 (75961,0), 3 CTAs running
GPGPU-Sim uArch: core: 10, cta: 2 initialized @(75962,0)
GPGPU-Sim uArch: cycles simulated: 76000  inst.: 15217568 (ipc=200.2) sim_rate=461138 (inst/sec) elapsed = 0:0:00:33 / Fri Dec 16 02:52:24 2016
GPGPU-Sim PTX: 15300000 instructions simulated : ctaid=(15,5,0) tid=(15,1,0)
GPGPU-Sim uArch: Shader 1 finished CTA #2 (76581,0), 3 CTAs running
GPGPU-Sim uArch: core:  1, cta: 2 initialized @(76582,0)
GPGPU-Sim PTX: 15400000 instructions simulated : ctaid=(4,3,0) tid=(15,11,0)
GPGPU-Sim uArch: Shader 5 finished CTA #2 (76656,0), 3 CTAs running
GPGPU-Sim uArch: core:  5, cta: 2 initialized @(76657,0)
GPGPU-Sim uArch: Shader 14 finished CTA #2 (76673,0), 3 CTAs running
GPGPU-Sim uArch: core: 14, cta: 2 initialized @(76674,0)
GPGPU-Sim uArch: Shader 8 finished CTA #2 (76800,0), 3 CTAs running
GPGPU-Sim uArch: core:  8, cta: 2 initialized @(76801,0)
GPGPU-Sim PTX: 15500000 instructions simulated : ctaid=(9,2,0) tid=(15,3,0)
GPGPU-Sim uArch: Shader 0 finished CTA #2 (77257,0), 3 CTAs running
GPGPU-Sim uArch: core:  0, cta: 2 initialized @(77258,0)
GPGPU-Sim PTX: 15600000 instructions simulated : ctaid=(13,2,0) tid=(15,9,0)
GPGPU-Sim uArch: Shader 13 finished CTA #2 (77607,0), 3 CTAs running
GPGPU-Sim uArch: core: 13, cta: 2 initialized @(77608,0)
GPGPU-Sim uArch: Shader 11 finished CTA #2 (77703,0), 3 CTAs running
GPGPU-Sim uArch: core: 11, cta: 2 initialized @(77704,0)
GPGPU-Sim PTX: 15700000 instructions simulated : ctaid=(12,3,0) tid=(15,3,0)
GPGPU-Sim uArch: cycles simulated: 78000  inst.: 15693344 (ipc=201.2) sim_rate=461568 (inst/sec) elapsed = 0:0:00:34 / Fri Dec 16 02:52:25 2016
GPGPU-Sim PTX: 15800000 instructions simulated : ctaid=(6,4,0) tid=(15,5,0)
GPGPU-Sim uArch: Shader 12 finished CTA #2 (78765,0), 3 CTAs running
GPGPU-Sim uArch: core: 12, cta: 2 initialized @(78766,0)
GPGPU-Sim PTX: 15900000 instructions simulated : ctaid=(13,2,0) tid=(15,13,0)
GPGPU-Sim PTX: 16000000 instructions simulated : ctaid=(15,2,0) tid=(15,11,0)
GPGPU-Sim PTX: 16100000 instructions simulated : ctaid=(1,3,0) tid=(15,5,0)
GPGPU-Sim uArch: cycles simulated: 80000  inst.: 16115296 (ipc=201.4) sim_rate=460437 (inst/sec) elapsed = 0:0:00:35 / Fri Dec 16 02:52:26 2016
GPGPU-Sim PTX: 16200000 instructions simulated : ctaid=(5,4,0) tid=(15,15,0)
GPGPU-Sim PTX: 16300000 instructions simulated : ctaid=(12,3,0) tid=(15,9,0)
GPGPU-Sim PTX: 16400000 instructions simulated : ctaid=(11,3,0) tid=(15,15,0)
GPGPU-Sim PTX: 16500000 instructions simulated : ctaid=(13,2,0) tid=(15,5,0)
GPGPU-Sim uArch: cycles simulated: 82000  inst.: 16549280 (ipc=201.8) sim_rate=459702 (inst/sec) elapsed = 0:0:00:36 / Fri Dec 16 02:52:27 2016
GPGPU-Sim PTX: 16600000 instructions simulated : ctaid=(13,2,0) tid=(15,1,0)
GPGPU-Sim PTX: 16700000 instructions simulated : ctaid=(9,4,0) tid=(15,3,0)
GPGPU-Sim PTX: 16800000 instructions simulated : ctaid=(13,2,0) tid=(15,11,0)
GPGPU-Sim PTX: 16900000 instructions simulated : ctaid=(0,5,0) tid=(15,7,0)
GPGPU-Sim PTX: 17000000 instructions simulated : ctaid=(8,5,0) tid=(15,5,0)
GPGPU-Sim uArch: cycles simulated: 84500  inst.: 17043584 (ipc=201.7) sim_rate=460637 (inst/sec) elapsed = 0:0:00:37 / Fri Dec 16 02:52:28 2016
GPGPU-Sim PTX: 17100000 instructions simulated : ctaid=(12,4,0) tid=(15,9,0)
GPGPU-Sim PTX: 17200000 instructions simulated : ctaid=(14,2,0) tid=(15,1,0)
GPGPU-Sim PTX: 17300000 instructions simulated : ctaid=(2,4,0) tid=(15,7,0)
GPGPU-Sim PTX: 17400000 instructions simulated : ctaid=(6,3,0) tid=(15,11,0)
GPGPU-Sim uArch: cycles simulated: 86500  inst.: 17438080 (ipc=201.6) sim_rate=458896 (inst/sec) elapsed = 0:0:00:38 / Fri Dec 16 02:52:29 2016
GPGPU-Sim PTX: 17500000 instructions simulated : ctaid=(7,4,0) tid=(15,1,0)
GPGPU-Sim PTX: 17600000 instructions simulated : ctaid=(9,3,0) tid=(15,15,0)
GPGPU-Sim PTX: 17700000 instructions simulated : ctaid=(12,3,0) tid=(15,5,0)
GPGPU-Sim PTX: 17800000 instructions simulated : ctaid=(1,4,0) tid=(15,7,0)
GPGPU-Sim PTX: 17900000 instructions simulated : ctaid=(4,3,0) tid=(15,15,0)
GPGPU-Sim uArch: cycles simulated: 89000  inst.: 17928800 (ipc=201.4) sim_rate=459712 (inst/sec) elapsed = 0:0:00:39 / Fri Dec 16 02:52:30 2016
GPGPU-Sim PTX: 18000000 instructions simulated : ctaid=(0,3,0) tid=(15,1,0)
GPGPU-Sim PTX: 18100000 instructions simulated : ctaid=(14,2,0) tid=(15,1,0)
GPGPU-Sim PTX: 18200000 instructions simulated : ctaid=(3,3,0) tid=(15,13,0)
GPGPU-Sim PTX: 18300000 instructions simulated : ctaid=(13,2,0) tid=(15,5,0)
GPGPU-Sim PTX: 18400000 instructions simulated : ctaid=(11,3,0) tid=(15,15,0)
GPGPU-Sim uArch: cycles simulated: 91500  inst.: 18430208 (ipc=201.4) sim_rate=460755 (inst/sec) elapsed = 0:0:00:40 / Fri Dec 16 02:52:31 2016
GPGPU-Sim PTX: 18500000 instructions simulated : ctaid=(7,6,0) tid=(15,7,0)
GPGPU-Sim uArch: Shader 3 finished CTA #3 (92022,0), 3 CTAs running
GPGPU-Sim uArch: core:  3, cta: 3 initialized @(92023,0)
GPGPU-Sim PTX: 18600000 instructions simulated : ctaid=(7,3,0) tid=(15,9,0)
GPGPU-Sim PTX: 18700000 instructions simulated : ctaid=(11,3,0) tid=(15,13,0)
GPGPU-Sim uArch: Shader 6 finished CTA #3 (92751,0), 3 CTAs running
GPGPU-Sim uArch: core:  6, cta: 3 initialized @(92752,0)
GPGPU-Sim PTX: 18800000 instructions simulated : ctaid=(15,3,0) tid=(15,5,0)
GPGPU-Sim PTX: 18900000 instructions simulated : ctaid=(11,3,0) tid=(15,7,0)
GPGPU-Sim uArch: cycles simulated: 93500  inst.: 18864064 (ipc=201.8) sim_rate=460099 (inst/sec) elapsed = 0:0:00:41 / Fri Dec 16 02:52:32 2016
GPGPU-Sim uArch: Shader 14 finished CTA #3 (93679,0), 3 CTAs running
GPGPU-Sim uArch: core: 14, cta: 3 initialized @(93680,0)
GPGPU-Sim uArch: Shader 4 finished CTA #3 (93801,0), 3 CTAs running
GPGPU-Sim uArch: core:  4, cta: 3 initialized @(93802,0)
GPGPU-Sim PTX: 19000000 instructions simulated : ctaid=(4,6,0) tid=(15,3,0)
GPGPU-Sim uArch: Shader 1 finished CTA #3 (93953,0), 3 CTAs running
GPGPU-Sim uArch: core:  1, cta: 3 initialized @(93954,0)
GPGPU-Sim uArch: Shader 8 finished CTA #3 (94295,0), 3 CTAs running
GPGPU-Sim uArch: core:  8, cta: 3 initialized @(94296,0)
GPGPU-Sim PTX: 19100000 instructions simulated : ctaid=(12,6,0) tid=(15,9,0)
GPGPU-Sim uArch: Shader 10 finished CTA #3 (94306,0), 3 CTAs running
GPGPU-Sim uArch: core: 10, cta: 3 initialized @(94307,0)
GPGPU-Sim uArch: Shader 13 finished CTA #3 (94454,0), 3 CTAs running
GPGPU-Sim uArch: core: 13, cta: 3 initialized @(94455,0)
GPGPU-Sim PTX: 19200000 instructions simulated : ctaid=(5,3,0) tid=(15,13,0)
GPGPU-Sim uArch: Shader 5 finished CTA #3 (95060,0), 3 CTAs running
GPGPU-Sim uArch: core:  5, cta: 3 initialized @(95061,0)
GPGPU-Sim PTX: 19300000 instructions simulated : ctaid=(7,4,0) tid=(15,15,0)
GPGPU-Sim uArch: cycles simulated: 95500  inst.: 19303168 (ipc=202.1) sim_rate=459599 (inst/sec) elapsed = 0:0:00:42 / Fri Dec 16 02:52:33 2016
GPGPU-Sim PTX: 19400000 instructions simulated : ctaid=(8,4,0) tid=(15,11,0)
GPGPU-Sim uArch: Shader 2 finished CTA #3 (95773,0), 3 CTAs running
GPGPU-Sim uArch: core:  2, cta: 3 initialized @(95774,0)
GPGPU-Sim uArch: Shader 11 finished CTA #3 (95870,0), 3 CTAs running
GPGPU-Sim uArch: core: 11, cta: 3 initialized @(95871,0)
GPGPU-Sim PTX: 19500000 instructions simulated : ctaid=(8,4,0) tid=(15,11,0)
GPGPU-Sim uArch: Shader 9 finished CTA #3 (96197,0), 3 CTAs running
GPGPU-Sim uArch: core:  9, cta: 3 initialized @(96198,0)
GPGPU-Sim uArch: Shader 7 finished CTA #3 (96347,0), 3 CTAs running
GPGPU-Sim uArch: core:  7, cta: 3 initialized @(96348,0)
GPGPU-Sim uArch: Shader 12 finished CTA #3 (96458,0), 3 CTAs running
GPGPU-Sim uArch: core: 12, cta: 3 initialized @(96459,0)
GPGPU-Sim uArch: Shader 0 finished CTA #3 (96513,0), 3 CTAs running
GPGPU-Sim uArch: core:  0, cta: 3 initialized @(96514,0)
GPGPU-Sim PTX: 19600000 instructions simulated : ctaid=(6,7,0) tid=(15,1,0)
GPGPU-Sim PTX: 19700000 instructions simulated : ctaid=(1,6,0) tid=(15,11,0)
GPGPU-Sim PTX: 19800000 instructions simulated : ctaid=(11,6,0) tid=(15,15,0)
GPGPU-Sim PTX: 19900000 instructions simulated : ctaid=(9,4,0) tid=(15,15,0)
GPGPU-Sim uArch: cycles simulated: 98000  inst.: 19897504 (ipc=203.0) sim_rate=462732 (inst/sec) elapsed = 0:0:00:43 / Fri Dec 16 02:52:34 2016
GPGPU-Sim PTX: 20000000 instructions simulated : ctaid=(3,7,0) tid=(15,15,0)
GPGPU-Sim PTX: 20100000 instructions simulated : ctaid=(6,7,0) tid=(15,7,0)
GPGPU-Sim PTX: 20200000 instructions simulated : ctaid=(6,5,0) tid=(15,9,0)
GPGPU-Sim PTX: 20300000 instructions simulated : ctaid=(6,4,0) tid=(15,11,0)
GPGPU-Sim uArch: cycles simulated: 100000  inst.: 20297568 (ipc=203.0) sim_rate=461308 (inst/sec) elapsed = 0:0:00:44 / Fri Dec 16 02:52:35 2016
GPGPU-Sim PTX: 20400000 instructions simulated : ctaid=(2,5,0) tid=(15,3,0)
GPGPU-Sim PTX: 20500000 instructions simulated : ctaid=(1,6,0) tid=(15,13,0)
GPGPU-Sim PTX: 20600000 instructions simulated : ctaid=(0,5,0) tid=(15,5,0)
GPGPU-Sim PTX: 20700000 instructions simulated : ctaid=(5,5,0) tid=(15,1,0)
GPGPU-Sim PTX: 20800000 instructions simulated : ctaid=(13,4,0) tid=(15,1,0)
GPGPU-Sim uArch: cycles simulated: 102500  inst.: 20806592 (ipc=203.0) sim_rate=462368 (inst/sec) elapsed = 0:0:00:45 / Fri Dec 16 02:52:36 2016
GPGPU-Sim PTX: 20900000 instructions simulated : ctaid=(12,5,0) tid=(15,7,0)
GPGPU-Sim PTX: 21000000 instructions simulated : ctaid=(12,4,0) tid=(15,15,0)
GPGPU-Sim PTX: 21100000 instructions simulated : ctaid=(11,6,0) tid=(15,13,0)
GPGPU-Sim PTX: 21200000 instructions simulated : ctaid=(3,4,0) tid=(15,1,0)
GPGPU-Sim PTX: 21300000 instructions simulated : ctaid=(8,4,0) tid=(15,15,0)
GPGPU-Sim uArch: cycles simulated: 105000  inst.: 21282336 (ipc=202.7) sim_rate=462659 (inst/sec) elapsed = 0:0:00:46 / Fri Dec 16 02:52:37 2016
GPGPU-Sim PTX: 21400000 instructions simulated : ctaid=(13,3,0) tid=(15,7,0)
GPGPU-Sim PTX: 21500000 instructions simulated : ctaid=(3,5,0) tid=(15,5,0)
GPGPU-Sim PTX: 21600000 instructions simulated : ctaid=(8,4,0) tid=(15,9,0)
GPGPU-Sim PTX: 21700000 instructions simulated : ctaid=(7,7,0) tid=(15,5,0)
GPGPU-Sim PTX: 21800000 instructions simulated : ctaid=(5,7,0) tid=(15,5,0)
GPGPU-Sim uArch: cycles simulated: 107500  inst.: 21792896 (ipc=202.7) sim_rate=463678 (inst/sec) elapsed = 0:0:00:47 / Fri Dec 16 02:52:38 2016
GPGPU-Sim PTX: 21900000 instructions simulated : ctaid=(12,3,0) tid=(15,7,0)
GPGPU-Sim PTX: 22000000 instructions simulated : ctaid=(5,4,0) tid=(15,13,0)
GPGPU-Sim PTX: 22100000 instructions simulated : ctaid=(14,3,0) tid=(15,13,0)
GPGPU-Sim PTX: 22200000 instructions simulated : ctaid=(6,5,0) tid=(15,11,0)
GPGPU-Sim uArch: cycles simulated: 109500  inst.: 22184064 (ipc=202.6) sim_rate=462168 (inst/sec) elapsed = 0:0:00:48 / Fri Dec 16 02:52:39 2016
GPGPU-Sim PTX: 22300000 instructions simulated : ctaid=(9,5,0) tid=(15,7,0)
GPGPU-Sim PTX: 22400000 instructions simulated : ctaid=(15,4,0) tid=(15,11,0)
GPGPU-Sim PTX: 22500000 instructions simulated : ctaid=(5,4,0) tid=(15,3,0)
GPGPU-Sim PTX: 22600000 instructions simulated : ctaid=(1,4,0) tid=(15,11,0)
GPGPU-Sim PTX: 22700000 instructions simulated : ctaid=(0,4,0) tid=(15,15,0)
GPGPU-Sim uArch: cycles simulated: 112000  inst.: 22701216 (ipc=202.7) sim_rate=463290 (inst/sec) elapsed = 0:0:00:49 / Fri Dec 16 02:52:40 2016
GPGPU-Sim PTX: 22800000 instructions simulated : ctaid=(9,4,0) tid=(15,11,0)
GPGPU-Sim PTX: 22900000 instructions simulated : ctaid=(2,5,0) tid=(15,11,0)
GPGPU-Sim PTX: 23000000 instructions simulated : ctaid=(5,4,0) tid=(15,7,0)
GPGPU-Sim PTX: 23100000 instructions simulated : ctaid=(3,4,0) tid=(15,5,0)
GPGPU-Sim PTX: 23200000 instructions simulated : ctaid=(10,4,0) tid=(15,13,0)
GPGPU-Sim uArch: Shader 5 finished CTA #0 (114308,0), 3 CTAs running
GPGPU-Sim uArch: core:  5, cta: 0 initialized @(114309,0)
GPGPU-Sim uArch: cycles simulated: 114500  inst.: 23196448 (ipc=202.6) sim_rate=463928 (inst/sec) elapsed = 0:0:00:50 / Fri Dec 16 02:52:41 2016
GPGPU-Sim PTX: 23300000 instructions simulated : ctaid=(1,4,0) tid=(15,5,0)
GPGPU-Sim uArch: Shader 6 finished CTA #0 (114896,0), 3 CTAs running
GPGPU-Sim uArch: core:  6, cta: 0 initialized @(114897,0)
GPGPU-Sim uArch: Shader 0 finished CTA #0 (115006,0), 3 CTAs running
GPGPU-Sim uArch: core:  0, cta: 0 initialized @(115007,0)
GPGPU-Sim PTX: 23400000 instructions simulated : ctaid=(14,3,0) tid=(15,3,0)
GPGPU-Sim uArch: Shader 1 finished CTA #0 (115205,0), 3 CTAs running
GPGPU-Sim uArch: core:  1, cta: 0 initialized @(115206,0)
GPGPU-Sim uArch: Shader 14 finished CTA #0 (115369,0), 3 CTAs running
GPGPU-Sim uArch: core: 14, cta: 0 initialized @(115370,0)
GPGPU-Sim uArch: Shader 12 finished CTA #0 (115567,0), 3 CTAs running
GPGPU-Sim uArch: core: 12, cta: 0 initialized @(115568,0)
GPGPU-Sim PTX: 23500000 instructions simulated : ctaid=(0,4,0) tid=(15,9,0)
GPGPU-Sim uArch: Shader 2 finished CTA #0 (115602,0), 3 CTAs running
GPGPU-Sim uArch: core:  2, cta: 0 initialized @(115603,0)
GPGPU-Sim uArch: Shader 3 finished CTA #0 (115625,0), 3 CTAs running
GPGPU-Sim uArch: core:  3, cta: 0 initialized @(115626,0)
GPGPU-Sim uArch: Shader 10 finished CTA #0 (115992,0), 3 CTAs running
GPGPU-Sim uArch: core: 10, cta: 0 initialized @(115993,0)
GPGPU-Sim PTX: 23600000 instructions simulated : ctaid=(9,4,0) tid=(15,13,0)
GPGPU-Sim uArch: Shader 7 finished CTA #0 (116317,0), 3 CTAs running
GPGPU-Sim uArch: core:  7, cta: 0 initialized @(116318,0)
GPGPU-Sim PTX: 23700000 instructions simulated : ctaid=(10,6,0) tid=(15,9,0)
GPGPU-Sim uArch: cycles simulated: 116500  inst.: 23680896 (ipc=203.3) sim_rate=464331 (inst/sec) elapsed = 0:0:00:51 / Fri Dec 16 02:52:42 2016
GPGPU-Sim uArch: Shader 4 finished CTA #0 (116542,0), 3 CTAs running
GPGPU-Sim uArch: core:  4, cta: 0 initialized @(116543,0)
GPGPU-Sim uArch: Shader 9 finished CTA #0 (116559,0), 3 CTAs running
GPGPU-Sim uArch: core:  9, cta: 0 initialized @(116560,0)
GPGPU-Sim uArch: Shader 11 finished CTA #0 (116561,0), 3 CTAs running
GPGPU-Sim uArch: core: 11, cta: 0 initialized @(116562,0)
GPGPU-Sim PTX: 23800000 instructions simulated : ctaid=(14,5,0) tid=(15,13,0)
GPGPU-Sim uArch: Shader 8 finished CTA #0 (116787,0), 3 CTAs running
GPGPU-Sim uArch: core:  8, cta: 0 initialized @(116788,0)
GPGPU-Sim PTX: 23900000 instructions simulated : ctaid=(3,8,0) tid=(15,15,0)
GPGPU-Sim uArch: Shader 13 finished CTA #0 (117374,0), 3 CTAs running
GPGPU-Sim uArch: core: 13, cta: 0 initialized @(117375,0)
GPGPU-Sim PTX: 24000000 instructions simulated : ctaid=(0,6,0) tid=(15,5,0)
GPGPU-Sim PTX: 24100000 instructions simulated : ctaid=(0,7,0) tid=(15,15,0)
GPGPU-Sim PTX: 24200000 instructions simulated : ctaid=(12,5,0) tid=(15,3,0)
GPGPU-Sim uArch: cycles simulated: 118500  inst.: 24161152 (ipc=203.9) sim_rate=464637 (inst/sec) elapsed = 0:0:00:52 / Fri Dec 16 02:52:43 2016
GPGPU-Sim PTX: 24300000 instructions simulated : ctaid=(6,5,0) tid=(15,5,0)
GPGPU-Sim PTX: 24400000 instructions simulated : ctaid=(4,5,0) tid=(15,13,0)
GPGPU-Sim PTX: 24500000 instructions simulated : ctaid=(14,4,0) tid=(15,5,0)
GPGPU-Sim PTX: 24600000 instructions simulated : ctaid=(4,5,0) tid=(15,7,0)
GPGPU-Sim uArch: cycles simulated: 120500  inst.: 24582976 (ipc=204.0) sim_rate=463829 (inst/sec) elapsed = 0:0:00:53 / Fri Dec 16 02:52:44 2016
GPGPU-Sim PTX: 24700000 instructions simulated : ctaid=(14,4,0) tid=(15,3,0)
GPGPU-Sim PTX: 24800000 instructions simulated : ctaid=(15,4,0) tid=(15,13,0)
GPGPU-Sim PTX: 24900000 instructions simulated : ctaid=(1,6,0) tid=(15,9,0)
GPGPU-Sim PTX: 25000000 instructions simulated : ctaid=(8,5,0) tid=(15,15,0)
GPGPU-Sim PTX: 25100000 instructions simulated : ctaid=(0,5,0) tid=(15,5,0)
GPGPU-Sim uArch: cycles simulated: 123000  inst.: 25077536 (ipc=203.9) sim_rate=464398 (inst/sec) elapsed = 0:0:00:54 / Fri Dec 16 02:52:45 2016
GPGPU-Sim PTX: 25200000 instructions simulated : ctaid=(11,4,0) tid=(15,5,0)
GPGPU-Sim PTX: 25300000 instructions simulated : ctaid=(5,6,0) tid=(15,3,0)
GPGPU-Sim PTX: 25400000 instructions simulated : ctaid=(12,5,0) tid=(15,11,0)
GPGPU-Sim PTX: 25500000 instructions simulated : ctaid=(4,5,0) tid=(15,1,0)
GPGPU-Sim PTX: 25600000 instructions simulated : ctaid=(2,5,0) tid=(15,1,0)
GPGPU-Sim uArch: cycles simulated: 125500  inst.: 25567104 (ipc=203.7) sim_rate=464856 (inst/sec) elapsed = 0:0:00:55 / Fri Dec 16 02:52:46 2016
GPGPU-Sim PTX: 25700000 instructions simulated : ctaid=(14,6,0) tid=(15,7,0)
GPGPU-Sim PTX: 25800000 instructions simulated : ctaid=(7,6,0) tid=(15,5,0)
GPGPU-Sim PTX: 25900000 instructions simulated : ctaid=(0,5,0) tid=(15,11,0)
GPGPU-Sim PTX: 26000000 instructions simulated : ctaid=(12,6,0) tid=(15,11,0)
GPGPU-Sim uArch: cycles simulated: 127500  inst.: 25973152 (ipc=203.7) sim_rate=463806 (inst/sec) elapsed = 0:0:00:56 / Fri Dec 16 02:52:47 2016
GPGPU-Sim PTX: 26100000 instructions simulated : ctaid=(6,5,0) tid=(15,3,0)
GPGPU-Sim PTX: 26200000 instructions simulated : ctaid=(2,5,0) tid=(15,11,0)
GPGPU-Sim PTX: 26300000 instructions simulated : ctaid=(2,5,0) tid=(15,5,0)
GPGPU-Sim PTX: 26400000 instructions simulated : ctaid=(4,5,0) tid=(15,9,0)
GPGPU-Sim PTX: 26500000 instructions simulated : ctaid=(4,7,0) tid=(15,1,0)
GPGPU-Sim uArch: cycles simulated: 130000  inst.: 26473952 (ipc=203.6) sim_rate=464455 (inst/sec) elapsed = 0:0:00:57 / Fri Dec 16 02:52:48 2016
GPGPU-Sim PTX: 26600000 instructions simulated : ctaid=(5,5,0) tid=(15,15,0)
GPGPU-Sim PTX: 26700000 instructions simulated : ctaid=(6,7,0) tid=(15,7,0)
GPGPU-Sim PTX: 26800000 instructions simulated : ctaid=(7,6,0) tid=(15,15,0)
GPGPU-Sim PTX: 26900000 instructions simulated : ctaid=(6,7,0) tid=(15,5,0)
GPGPU-Sim uArch: cycles simulated: 132000  inst.: 26892768 (ipc=203.7) sim_rate=463668 (inst/sec) elapsed = 0:0:00:58 / Fri Dec 16 02:52:49 2016
GPGPU-Sim PTX: 27000000 instructions simulated : ctaid=(4,5,0) tid=(15,7,0)
GPGPU-Sim PTX: 27100000 instructions simulated : ctaid=(9,6,0) tid=(15,5,0)
GPGPU-Sim PTX: 27200000 instructions simulated : ctaid=(8,6,0) tid=(15,5,0)
GPGPU-Sim PTX: 27300000 instructions simulated : ctaid=(11,4,0) tid=(15,11,0)
GPGPU-Sim uArch: Shader 2 finished CTA #1 (134071,0), 3 CTAs running
GPGPU-Sim uArch: core:  2, cta: 1 initialized @(134072,0)
GPGPU-Sim PTX: 27400000 instructions simulated : ctaid=(5,6,0) tid=(15,5,0)
GPGPU-Sim uArch: cycles simulated: 134500  inst.: 27381440 (ipc=203.6) sim_rate=464092 (inst/sec) elapsed = 0:0:00:59 / Fri Dec 16 02:52:50 2016
GPGPU-Sim uArch: Shader 0 finished CTA #1 (134626,0), 3 CTAs running
GPGPU-Sim uArch: core:  0, cta: 1 initialized @(134627,0)
GPGPU-Sim PTX: 27500000 instructions simulated : ctaid=(1,6,0) tid=(15,3,0)
GPGPU-Sim uArch: Shader 1 finished CTA #1 (135069,0), 3 CTAs running
GPGPU-Sim uArch: core:  1, cta: 1 initialized @(135070,0)
GPGPU-Sim PTX: 27600000 instructions simulated : ctaid=(5,6,0) tid=(15,15,0)
GPGPU-Sim uArch: Shader 5 finished CTA #1 (135325,0), 3 CTAs running
GPGPU-Sim uArch: core:  5, cta: 1 initialized @(135326,0)
GPGPU-Sim uArch: Shader 8 finished CTA #1 (135416,0), 3 CTAs running
GPGPU-Sim uArch: core:  8, cta: 1 initialized @(135417,0)
GPGPU-Sim PTX: 27700000 instructions simulated : ctaid=(2,7,0) tid=(15,5,0)
GPGPU-Sim uArch: Shader 7 finished CTA #1 (135626,0), 3 CTAs running
GPGPU-Sim uArch: core:  7, cta: 1 initialized @(135627,0)
GPGPU-Sim uArch: Shader 6 finished CTA #1 (135832,0), 3 CTAs running
GPGPU-Sim uArch: core:  6, cta: 1 initialized @(135833,0)
GPGPU-Sim uArch: Shader 13 finished CTA #1 (135872,0), 3 CTAs running
GPGPU-Sim uArch: core: 13, cta: 1 initialized @(135873,0)
GPGPU-Sim uArch: Shader 12 finished CTA #1 (135876,0), 3 CTAs running
GPGPU-Sim uArch: core: 12, cta: 1 initialized @(135877,0)
GPGPU-Sim PTX: 27800000 instructions simulated : ctaid=(10,5,0) tid=(15,1,0)
GPGPU-Sim uArch: Shader 3 finished CTA #1 (135952,0), 3 CTAs running
GPGPU-Sim uArch: core:  3, cta: 1 initialized @(135953,0)
GPGPU-Sim uArch: Shader 9 finished CTA #1 (136035,0), 3 CTAs running
GPGPU-Sim uArch: core:  9, cta: 1 initialized @(136036,0)
GPGPU-Sim uArch: Shader 10 finished CTA #1 (136156,0), 3 CTAs running
GPGPU-Sim uArch: core: 10, cta: 1 initialized @(136157,0)
GPGPU-Sim uArch: Shader 4 finished CTA #1 (136167,0), 3 CTAs running
GPGPU-Sim uArch: core:  4, cta: 1 initialized @(136168,0)
GPGPU-Sim uArch: Shader 14 finished CTA #1 (136236,0), 3 CTAs running
GPGPU-Sim uArch: core: 14, cta: 1 initialized @(136237,0)
GPGPU-Sim PTX: 27900000 instructions simulated : ctaid=(13,8,0) tid=(15,9,0)
GPGPU-Sim uArch: cycles simulated: 136500  inst.: 27877120 (ipc=204.2) sim_rate=464618 (inst/sec) elapsed = 0:0:01:00 / Fri Dec 16 02:52:51 2016
GPGPU-Sim PTX: 28000000 instructions simulated : ctaid=(3,7,0) tid=(15,15,0)
GPGPU-Sim uArch: Shader 11 finished CTA #1 (136852,0), 3 CTAs running
GPGPU-Sim uArch: core: 11, cta: 1 initialized @(136853,0)
GPGPU-Sim PTX: 28100000 instructions simulated : ctaid=(0,6,0) tid=(15,11,0)
GPGPU-Sim PTX: 28200000 instructions simulated : ctaid=(10,5,0) tid=(15,9,0)
GPGPU-Sim PTX: 28300000 instructions simulated : ctaid=(8,7,0) tid=(15,3,0)
GPGPU-Sim PTX: 28400000 instructions simulated : ctaid=(3,7,0) tid=(15,15,0)
GPGPU-Sim uArch: cycles simulated: 138500  inst.: 28335488 (ipc=204.6) sim_rate=464516 (inst/sec) elapsed = 0:0:01:01 / Fri Dec 16 02:52:52 2016
GPGPU-Sim PTX: 28500000 instructions simulated : ctaid=(2,6,0) tid=(15,1,0)
GPGPU-Sim PTX: 28600000 instructions simulated : ctaid=(13,5,0) tid=(15,7,0)
GPGPU-Sim PTX: 28700000 instructions simulated : ctaid=(7,7,0) tid=(15,13,0)
GPGPU-Sim PTX: 28800000 instructions simulated : ctaid=(7,7,0) tid=(15,3,0)
GPGPU-Sim PTX: 28900000 instructions simulated : ctaid=(14,6,0) tid=(15,9,0)
GPGPU-Sim uArch: cycles simulated: 141000  inst.: 28862944 (ipc=204.7) sim_rate=465531 (inst/sec) elapsed = 0:0:01:02 / Fri Dec 16 02:52:53 2016
GPGPU-Sim PTX: 29000000 instructions simulated : ctaid=(2,7,0) tid=(15,7,0)
GPGPU-Sim PTX: 29100000 instructions simulated : ctaid=(1,6,0) tid=(15,3,0)
GPGPU-Sim PTX: 29200000 instructions simulated : ctaid=(10,7,0) tid=(15,15,0)
GPGPU-Sim PTX: 29300000 instructions simulated : ctaid=(1,7,0) tid=(15,13,0)
GPGPU-Sim uArch: cycles simulated: 143000  inst.: 29272992 (ipc=204.7) sim_rate=464650 (inst/sec) elapsed = 0:0:01:03 / Fri Dec 16 02:52:54 2016
GPGPU-Sim PTX: 29400000 instructions simulated : ctaid=(15,5,0) tid=(15,5,0)
GPGPU-Sim PTX: 29500000 instructions simulated : ctaid=(0,6,0) tid=(15,9,0)
GPGPU-Sim PTX: 29600000 instructions simulated : ctaid=(15,5,0) tid=(15,11,0)
GPGPU-Sim PTX: 29700000 instructions simulated : ctaid=(1,7,0) tid=(15,13,0)
GPGPU-Sim PTX: 29800000 instructions simulated : ctaid=(12,6,0) tid=(15,3,0)
GPGPU-Sim uArch: cycles simulated: 145500  inst.: 29757504 (ipc=204.5) sim_rate=464961 (inst/sec) elapsed = 0:0:01:04 / Fri Dec 16 02:52:55 2016
GPGPU-Sim PTX: 29900000 instructions simulated : ctaid=(13,5,0) tid=(15,1,0)
GPGPU-Sim PTX: 30000000 instructions simulated : ctaid=(6,6,0) tid=(15,15,0)
GPGPU-Sim PTX: 30100000 instructions simulated : ctaid=(5,6,0) tid=(15,3,0)
GPGPU-Sim PTX: 30200000 instructions simulated : ctaid=(6,8,0) tid=(15,7,0)
GPGPU-Sim PTX: 30300000 instructions simulated : ctaid=(13,5,0) tid=(15,3,0)
GPGPU-Sim uArch: cycles simulated: 148000  inst.: 30259296 (ipc=204.5) sim_rate=465527 (inst/sec) elapsed = 0:0:01:05 / Fri Dec 16 02:52:56 2016
GPGPU-Sim PTX: 30400000 instructions simulated : ctaid=(15,5,0) tid=(15,11,0)
GPGPU-Sim uArch: cycles simulated: 148500  inst.: 30351584 (ipc=204.4) sim_rate=459872 (inst/sec) elapsed = 0:0:01:06 / Fri Dec 16 02:52:57 2016
GPGPU-Sim PTX: 30500000 instructions simulated : ctaid=(3,6,0) tid=(15,11,0)
GPGPU-Sim PTX: 30600000 instructions simulated : ctaid=(5,6,0) tid=(15,3,0)
GPGPU-Sim PTX: 30700000 instructions simulated : ctaid=(9,6,0) tid=(15,1,0)
GPGPU-Sim PTX: 30800000 instructions simulated : ctaid=(8,8,0) tid=(15,7,0)
GPGPU-Sim PTX: 30900000 instructions simulated : ctaid=(14,6,0) tid=(15,9,0)
GPGPU-Sim uArch: cycles simulated: 151000  inst.: 30864256 (ipc=204.4) sim_rate=460660 (inst/sec) elapsed = 0:0:01:07 / Fri Dec 16 02:52:58 2016
GPGPU-Sim uArch: Shader 6 finished CTA #2 (151282,0), 3 CTAs running
GPGPU-Sim uArch: core:  6, cta: 2 initialized @(151283,0)
GPGPU-Sim PTX: 31000000 instructions simulated : ctaid=(10,6,0) tid=(15,15,0)
GPGPU-Sim uArch: Shader 2 finished CTA #2 (151398,0), 3 CTAs running
GPGPU-Sim uArch: core:  2, cta: 2 initialized @(151399,0)
GPGPU-Sim uArch: Shader 14 finished CTA #2 (151584,0), 3 CTAs running
GPGPU-Sim uArch: core: 14, cta: 2 initialized @(151585,0)
GPGPU-Sim PTX: 31100000 instructions simulated : ctaid=(5,9,0) tid=(15,3,0)
GPGPU-Sim PTX: 31200000 instructions simulated : ctaid=(11,6,0) tid=(15,13,0)
GPGPU-Sim uArch: Shader 3 finished CTA #2 (152447,0), 3 CTAs running
GPGPU-Sim uArch: core:  3, cta: 2 initialized @(152448,0)
GPGPU-Sim PTX: 31300000 instructions simulated : ctaid=(8,6,0) tid=(15,9,0)
GPGPU-Sim uArch: cycles simulated: 153000  inst.: 31288096 (ipc=204.5) sim_rate=460119 (inst/sec) elapsed = 0:0:01:08 / Fri Dec 16 02:52:59 2016
GPGPU-Sim PTX: 31400000 instructions simulated : ctaid=(4,6,0) tid=(15,3,0)
GPGPU-Sim PTX: 31500000 instructions simulated : ctaid=(5,6,0) tid=(15,9,0)
GPGPU-Sim uArch: Shader 4 finished CTA #2 (153715,0), 3 CTAs running
GPGPU-Sim uArch: core:  4, cta: 2 initialized @(153716,0)
GPGPU-Sim uArch: Shader 1 finished CTA #2 (153881,0), 3 CTAs running
GPGPU-Sim uArch: core:  1, cta: 2 initialized @(153882,0)
GPGPU-Sim uArch: Shader 7 finished CTA #2 (154026,0), 3 CTAs running
GPGPU-Sim uArch: core:  7, cta: 2 initialized @(154027,0)
GPGPU-Sim PTX: 31600000 instructions simulated : ctaid=(12,7,0) tid=(15,13,0)
GPGPU-Sim uArch: Shader 8 finished CTA #2 (154221,0), 3 CTAs running
GPGPU-Sim uArch: core:  8, cta: 2 initialized @(154222,0)
GPGPU-Sim uArch: Shader 11 finished CTA #2 (154397,0), 3 CTAs running
GPGPU-Sim uArch: core: 11, cta: 2 initialized @(154398,0)
GPGPU-Sim uArch: Shader 10 finished CTA #2 (154420,0), 3 CTAs running
GPGPU-Sim uArch: core: 10, cta: 2 initialized @(154421,0)
GPGPU-Sim PTX: 31700000 instructions simulated : ctaid=(15,9,0) tid=(15,9,0)
GPGPU-Sim uArch: Shader 9 finished CTA #2 (154660,0), 3 CTAs running
GPGPU-Sim uArch: core:  9, cta: 2 initialized @(154661,0)
GPGPU-Sim PTX: 31800000 instructions simulated : ctaid=(0,8,0) tid=(15,3,0)
GPGPU-Sim uArch: cycles simulated: 155000  inst.: 31748960 (ipc=204.8) sim_rate=460129 (inst/sec) elapsed = 0:0:01:09 / Fri Dec 16 02:53:00 2016
GPGPU-Sim uArch: Shader 0 finished CTA #2 (155025,0), 3 CTAs running
GPGPU-Sim uArch: core:  0, cta: 2 initialized @(155026,0)
GPGPU-Sim uArch: Shader 12 finished CTA #2 (155190,0), 3 CTAs running
GPGPU-Sim uArch: core: 12, cta: 2 initialized @(155191,0)
GPGPU-Sim PTX: 31900000 instructions simulated : ctaid=(13,6,0) tid=(15,13,0)
GPGPU-Sim uArch: Shader 13 finished CTA #2 (155457,0), 3 CTAs running
GPGPU-Sim uArch: core: 13, cta: 2 initialized @(155458,0)
GPGPU-Sim PTX: 32000000 instructions simulated : ctaid=(13,6,0) tid=(15,1,0)
GPGPU-Sim uArch: Shader 5 finished CTA #2 (156173,0), 3 CTAs running
GPGPU-Sim uArch: core:  5, cta: 2 initialized @(156174,0)
GPGPU-Sim PTX: 32100000 instructions simulated : ctaid=(11,6,0) tid=(15,13,0)
GPGPU-Sim PTX: 32200000 instructions simulated : ctaid=(12,7,0) tid=(15,3,0)
GPGPU-Sim PTX: 32300000 instructions simulated : ctaid=(4,7,0) tid=(15,9,0)
GPGPU-Sim uArch: cycles simulated: 157500  inst.: 32314848 (ipc=205.2) sim_rate=461640 (inst/sec) elapsed = 0:0:01:10 / Fri Dec 16 02:53:01 2016
GPGPU-Sim PTX: 32400000 instructions simulated : ctaid=(10,6,0) tid=(15,15,0)
GPGPU-Sim PTX: 32500000 instructions simulated : ctaid=(4,7,0) tid=(15,3,0)
GPGPU-Sim PTX: 32600000 instructions simulated : ctaid=(8,7,0) tid=(15,3,0)
GPGPU-Sim PTX: 32700000 instructions simulated : ctaid=(0,7,0) tid=(15,15,0)
GPGPU-Sim PTX: 32800000 instructions simulated : ctaid=(1,7,0) tid=(15,13,0)
GPGPU-Sim uArch: cycles simulated: 159500  inst.: 32736928 (ipc=205.2) sim_rate=461083 (inst/sec) elapsed = 0:0:01:11 / Fri Dec 16 02:53:02 2016
GPGPU-Sim PTX: 32900000 instructions simulated : ctaid=(0,7,0) tid=(15,3,0)
GPGPU-Sim PTX: 33000000 instructions simulated : ctaid=(9,7,0) tid=(15,5,0)
GPGPU-Sim PTX: 33100000 instructions simulated : ctaid=(1,8,0) tid=(15,9,0)
GPGPU-Sim PTX: 33200000 instructions simulated : ctaid=(13,6,0) tid=(15,9,0)
GPGPU-Sim uArch: cycles simulated: 161500  inst.: 33165600 (ipc=205.4) sim_rate=460633 (inst/sec) elapsed = 0:0:01:12 / Fri Dec 16 02:53:03 2016
GPGPU-Sim PTX: 33300000 instructions simulated : ctaid=(12,7,0) tid=(15,7,0)
GPGPU-Sim PTX: 33400000 instructions simulated : ctaid=(9,8,0) tid=(15,13,0)
GPGPU-Sim PTX: 33500000 instructions simulated : ctaid=(6,7,0) tid=(15,7,0)
GPGPU-Sim PTX: 33600000 instructions simulated : ctaid=(9,6,0) tid=(15,11,0)
GPGPU-Sim PTX: 33700000 instructions simulated : ctaid=(4,9,0) tid=(15,3,0)
GPGPU-Sim uArch: cycles simulated: 164000  inst.: 33635328 (ipc=205.1) sim_rate=460757 (inst/sec) elapsed = 0:0:01:13 / Fri Dec 16 02:53:04 2016
GPGPU-Sim PTX: 33800000 instructions simulated : ctaid=(0,7,0) tid=(15,11,0)
GPGPU-Sim PTX: 33900000 instructions simulated : ctaid=(11,7,0) tid=(15,9,0)
GPGPU-Sim PTX: 34000000 instructions simulated : ctaid=(10,7,0) tid=(15,5,0)
GPGPU-Sim PTX: 34100000 instructions simulated : ctaid=(13,6,0) tid=(15,7,0)
GPGPU-Sim PTX: 34200000 instructions simulated : ctaid=(14,6,0) tid=(15,1,0)
GPGPU-Sim uArch: cycles simulated: 166500  inst.: 34135008 (ipc=205.0) sim_rate=461283 (inst/sec) elapsed = 0:0:01:14 / Fri Dec 16 02:53:05 2016
GPGPU-Sim PTX: 34300000 instructions simulated : ctaid=(5,7,0) tid=(15,5,0)
GPGPU-Sim PTX: 34400000 instructions simulated : ctaid=(5,8,0) tid=(15,15,0)
GPGPU-Sim PTX: 34500000 instructions simulated : ctaid=(5,7,0) tid=(15,7,0)
GPGPU-Sim PTX: 34600000 instructions simulated : ctaid=(12,6,0) tid=(15,3,0)
GPGPU-Sim PTX: 34700000 instructions simulated : ctaid=(6,7,0) tid=(15,9,0)
GPGPU-Sim uArch: cycles simulated: 169000  inst.: 34638752 (ipc=205.0) sim_rate=461850 (inst/sec) elapsed = 0:0:01:15 / Fri Dec 16 02:53:06 2016
GPGPU-Sim PTX: 34800000 instructions simulated : ctaid=(5,7,0) tid=(15,13,0)
GPGPU-Sim PTX: 34900000 instructions simulated : ctaid=(1,7,0) tid=(15,13,0)
GPGPU-Sim PTX: 35000000 instructions simulated : ctaid=(6,8,0) tid=(15,5,0)
GPGPU-Sim PTX: 35100000 instructions simulated : ctaid=(10,9,0) tid=(15,3,0)
GPGPU-Sim uArch: cycles simulated: 171000  inst.: 35034624 (ipc=204.9) sim_rate=460981 (inst/sec) elapsed = 0:0:01:16 / Fri Dec 16 02:53:07 2016
GPGPU-Sim PTX: 35200000 instructions simulated : ctaid=(13,6,0) tid=(15,7,0)
GPGPU-Sim PTX: 35300000 instructions simulated : ctaid=(4,7,0) tid=(15,11,0)
GPGPU-Sim uArch: Shader 1 finished CTA #3 (172073,0), 3 CTAs running
GPGPU-Sim uArch: core:  1, cta: 3 initialized @(172074,0)
GPGPU-Sim uArch: Shader 3 finished CTA #3 (172138,0), 3 CTAs running
GPGPU-Sim uArch: core:  3, cta: 3 initialized @(172139,0)
GPGPU-Sim PTX: 35400000 instructions simulated : ctaid=(4,9,0) tid=(15,1,0)
GPGPU-Sim PTX: 35500000 instructions simulated : ctaid=(15,6,0) tid=(15,15,0)
GPGPU-Sim PTX: 35600000 instructions simulated : ctaid=(10,6,0) tid=(15,15,0)
GPGPU-Sim uArch: Shader 4 finished CTA #3 (173464,0), 3 CTAs running
GPGPU-Sim uArch: core:  4, cta: 3 initialized @(173465,0)
GPGPU-Sim uArch: cycles simulated: 173500  inst.: 35571680 (ipc=205.0) sim_rate=461969 (inst/sec) elapsed = 0:0:01:17 / Fri Dec 16 02:53:08 2016
GPGPU-Sim PTX: 35700000 instructions simulated : ctaid=(9,7,0) tid=(15,9,0)
GPGPU-Sim uArch: Shader 5 finished CTA #3 (173854,0), 3 CTAs running
GPGPU-Sim uArch: core:  5, cta: 3 initialized @(173855,0)
GPGPU-Sim uArch: Shader 7 finished CTA #3 (173880,0), 3 CTAs running
GPGPU-Sim uArch: core:  7, cta: 3 initialized @(173881,0)
GPGPU-Sim uArch: Shader 8 finished CTA #3 (173892,0), 3 CTAs running
GPGPU-Sim uArch: core:  8, cta: 3 initialized @(173893,0)
GPGPU-Sim uArch: Shader 2 finished CTA #3 (174018,0), 3 CTAs running
GPGPU-Sim uArch: core:  2, cta: 3 initialized @(174019,0)
GPGPU-Sim uArch: Shader 6 finished CTA #3 (174110,0), 3 CTAs running
GPGPU-Sim uArch: core:  6, cta: 3 initialized @(174111,0)
GPGPU-Sim PTX: 35800000 instructions simulated : ctaid=(15,6,0) tid=(15,3,0)
GPGPU-Sim uArch: Shader 14 finished CTA #3 (174284,0), 3 CTAs running
GPGPU-Sim uArch: core: 14, cta: 3 initialized @(174285,0)
GPGPU-Sim uArch: Shader 12 finished CTA #3 (174471,0), 3 CTAs running
GPGPU-Sim uArch: core: 12, cta: 3 initialized @(174472,0)
GPGPU-Sim PTX: 35900000 instructions simulated : ctaid=(13,10,0) tid=(15,9,0)
GPGPU-Sim uArch: Shader 13 finished CTA #3 (174966,0), 3 CTAs running
GPGPU-Sim uArch: core: 13, cta: 3 initialized @(174967,0)
GPGPU-Sim PTX: 36000000 instructions simulated : ctaid=(2,8,0) tid=(15,9,0)
GPGPU-Sim uArch: Shader 9 finished CTA #3 (175061,0), 3 CTAs running
GPGPU-Sim uArch: core:  9, cta: 3 initialized @(175062,0)
GPGPU-Sim uArch: Shader 10 finished CTA #3 (175069,0), 3 CTAs running
GPGPU-Sim uArch: core: 10, cta: 3 initialized @(175070,0)
GPGPU-Sim PTX: 36100000 instructions simulated : ctaid=(3,8,0) tid=(15,11,0)
GPGPU-Sim uArch: cycles simulated: 175500  inst.: 36037184 (ipc=205.3) sim_rate=462015 (inst/sec) elapsed = 0:0:01:18 / Fri Dec 16 02:53:09 2016
GPGPU-Sim uArch: Shader 11 finished CTA #3 (175681,0), 3 CTAs running
GPGPU-Sim uArch: core: 11, cta: 3 initialized @(175682,0)
GPGPU-Sim PTX: 36200000 instructions simulated : ctaid=(0,8,0) tid=(15,15,0)
GPGPU-Sim uArch: Shader 0 finished CTA #3 (176144,0), 3 CTAs running
GPGPU-Sim uArch: core:  0, cta: 3 initialized @(176145,0)
GPGPU-Sim PTX: 36300000 instructions simulated : ctaid=(12,7,0) tid=(15,9,0)
GPGPU-Sim PTX: 36400000 instructions simulated : ctaid=(11,8,0) tid=(15,13,0)
GPGPU-Sim PTX: 36500000 instructions simulated : ctaid=(1,8,0) tid=(15,7,0)
GPGPU-Sim uArch: cycles simulated: 177500  inst.: 36497760 (ipc=205.6) sim_rate=461996 (inst/sec) elapsed = 0:0:01:19 / Fri Dec 16 02:53:10 2016
GPGPU-Sim PTX: 36600000 instructions simulated : ctaid=(14,9,0) tid=(15,1,0)
GPGPU-Sim PTX: 36700000 instructions simulated : ctaid=(2,8,0) tid=(15,3,0)
GPGPU-Sim PTX: 36800000 instructions simulated : ctaid=(6,8,0) tid=(15,13,0)
GPGPU-Sim PTX: 36900000 instructions simulated : ctaid=(3,8,0) tid=(15,9,0)
GPGPU-Sim uArch: cycles simulated: 179500  inst.: 36898784 (ipc=205.6) sim_rate=461234 (inst/sec) elapsed = 0:0:01:20 / Fri Dec 16 02:53:11 2016
GPGPU-Sim PTX: 37000000 instructions simulated : ctaid=(4,8,0) tid=(15,15,0)
GPGPU-Sim PTX: 37100000 instructions simulated : ctaid=(0,10,0) tid=(15,13,0)
GPGPU-Sim PTX: 37200000 instructions simulated : ctaid=(14,8,0) tid=(15,13,0)
GPGPU-Sim PTX: 37300000 instructions simulated : ctaid=(3,8,0) tid=(15,15,0)
GPGPU-Sim PTX: 37400000 instructions simulated : ctaid=(4,8,0) tid=(15,15,0)
GPGPU-Sim uArch: cycles simulated: 182000  inst.: 37410272 (ipc=205.6) sim_rate=461855 (inst/sec) elapsed = 0:0:01:21 / Fri Dec 16 02:53:12 2016
GPGPU-Sim PTX: 37500000 instructions simulated : ctaid=(0,9,0) tid=(15,3,0)
GPGPU-Sim PTX: 37600000 instructions simulated : ctaid=(9,7,0) tid=(15,5,0)
[...]
Warp Occupancy Distribution:
Stall:5645181	W0_Idle:1457779	W0_Scoreboard:998338	W1:0	W2:0	W3:0	W4:0	W5:0	W6:0	W7:0	W8:0	W9:0	W10:0	W11:0	W12:0	W13:0	W14:0	W15:0	W16:0	W17:0	W18:0	W19:0	W20:0	W21:0	W22:0	W23:0	W24:0	W25:0	W26:0	W27:0	W28:0	W29:0	W30:0	W31:0	W32:2191360
traffic_breakdown_coretomem[CONST_ACC_R] = 120 {8:15,}
traffic_breakdown_coretomem[GLOBAL_ACC_R] = 690456 {8:86307,}
traffic_breakdown_coretomem[GLOBAL_ACC_W] = 294912 {72:4096,}
traffic_breakdown_coretomem[INST_ACC_R] = 840 {8:105,}
traffic_breakdown_memtocore[CONST_ACC_R] = 1080 {72:15,}
traffic_breakdown_memtocore[GLOBAL_ACC_R] = 11737752 {136:86307,}
traffic_breakdown_memtocore[GLOBAL_ACC_W] = 32768 {8:4096,}
traffic_breakdown_memtocore[INST_ACC_R] = 14280 {136:105,}
maxmrqlatency = 146 
maxdqlatency = 0 
maxmflatency = 1427 
averagemflatency = 209 
max_icnt2mem_latency = 1169 
max_icnt2sh_latency = 359916 
mrq_lat_table:4747 	256 	373 	887 	1225 	671 	119 	4 	0 	0 	0 	0 	0 	0 	0 	0 	0 	0 	0 	0 	0 	0 	0 	0 	0 	0 	0 	0 	0 	0 	0 	0 	
dq_lat_table:0 	0 	0 	0 	0 	0 	0 	0 	0 	0 	0 	0 	0 	0 	0 	0 	0 	0 	0 	0 	0 	0 	0 	0 	0 	0 	0 	0 	0 	0 	0 	0 	
mf_lat_table:0 	0 	0 	0 	0 	0 	0 	75105 	13521 	1083 	709 	0 	0 	0 	0 	0 	0 	0 	0 	0 	0 	0 	0 	0 	0 	0 	0 	0 	0 	0 	0 	0 	
icnt2mem_lat_table:0 	0 	0 	75879 	10607 	1656 	465 	399 	265 	1196 	56 	0 	0 	0 	0 	0 	0 	0 	0 	0 	0 	0 	0 	0 	
icnt2sh_lat_table:0 	0 	0 	13471 	38635 	28708 	5494 	14 	0 	0 	0 	0 	0 	0 	0 	480 	720 	1680 	1216 	0 	0 	0 	0 	0 	
mf_lat_pw_table:0 	0 	0 	0 	0 	0 	0 	656 	25 	3 	4 	0 	0 	0 	0 	0 	0 	0 	0 	0 	0 	0 	0 	0 	0 	0 	0 	0 	0 	0 	0 	0 	
maximum concurrent accesses to same row:
dram[0]:        32        32        32        32        16        16        16        32        32        32        52        55        64        64        64        64 
dram[1]:        32        32        32        32        16        16        29        32        32        32        54        55        64        64        64        69 
dram[2]:        32        32        32        32        16        16        32        16        32        32        52        54        64        64        64        64 
dram[3]:        32        32        32        32        16        16        32        29        32        32        53        57        64        64        69        64 
dram[4]:        32        32        32        32        16        16        16        32        32        32        54        54        64        64        64        64 
dram[5]:        32        32        32        32        16        16        30        32        32        32        58        54        64        64        64        70 
maximum service time to same row:
dram[0]:    189425    190813    249492    247546    302772    300418      4127     23332     39362     74566     92293    118708     81189    138633    134953    138819 
dram[1]:    180703    179873    257687    237321    309648    291858     13410     32109     67962     73254    118785    123169    124616    147256    134510    151174 
dram[2]:    190844    189391    247674    249460    300396    302828     23182      4027     74573     39497    118708     92422    138644     81370    138838    134959 
dram[3]:    171269    180636    237271    257575    291859    309653     32050     13488     73244     67761    123168    118706    147268    124612    151166    134513 
dram[4]:    189461    190856    249428    247512    302819    300319      4051     23290     39372     74575     91873    118657     81193    138644    134949    138837 
dram[5]:    180693    179890    257634    237256    309640    291834     13453     32050     67916     73260    118793    123168    124617    147273    134522    151169 
average row accesses per activate:
dram[0]: 19.799999 50.000000 48.000000 48.000000 17.200001 18.400000 12.800000 32.000000 32.000000 32.000000 42.000000 43.500000 48.000000 48.000000 48.000000 48.000000 
dram[1]: 34.333332 48.000000 48.000000 49.000000 17.200001 17.200001 10.666667 32.000000 32.000000 32.000000 43.000000 43.500000 48.000000 48.000000 48.000000 50.500000 
dram[2]: 34.333332 48.000000 48.000000 48.000000 18.200001 16.799999 32.000000 12.800000 32.000000 32.000000 42.000000 43.000000 48.000000 48.000000 48.000000 48.000000 
dram[3]: 32.333332 50.500000 49.500000 48.000000 17.400000 16.799999 32.000000 16.000000 32.000000 32.000000 42.500000 44.500000 48.000000 48.000000 50.500000 48.000000 
dram[4]: 48.000000 50.500000 48.000000 48.000000 17.200001 17.799999 12.800000 32.000000 32.000000 32.000000 43.000000 43.000000 48.000000 48.000000 48.000000 48.000000 
dram[5]: 50.000000 48.000000 48.000000 49.500000 17.200001 17.000000 16.000000 32.000000 32.000000 32.000000 45.000000 43.000000 48.000000 48.000000 48.000000 51.000000 
average row locality = 8282/251 = 32.996017
number of total memory accesses made:
dram[0]:         0         0         0         0         0         0         0         0         0         0         0         0         0         0         0         0 
dram[1]:         0         0         0         0         0         0         0         0         0         0         0         0         0         0         0         0 
dram[2]:         0         0         0         0         0         0         0         0         0         0         0         0         0         0         0         0 
dram[3]:         0         0         0         0         0         0         0         0         0         0         0         0         0         0         0         0 
dram[4]:         0         0         0         0         0         0         0         0         0         0         0         0         0         0         0         0 
dram[5]:         0         0         0         0         0         0         0         0         0         0         0         0         0         0         0         0 
total accesses: 0
min_bank_accesses = 0!
min_chip_accesses = 0!
number of total read accesses:
dram[0]:        67        64        64        64        64        64        64        64        64        64        64        64        64        64        64        64 
dram[1]:        66        64        64        64        64        64        64        64        64        64        64        64        64        64        64        64 
dram[2]:        66        64        64        64        64        64        64        64        64        64        64        64        64        64        64        64 
dram[3]:        65        64        64        64        64        64        64        64        64        64        64        64        64        64        64        64 
dram[4]:        64        64        64        64        64        64        64        64        64        64        64        64        64        64        64        64 
dram[5]:        64        64        64        64        64        64        64        64        64        64        64        64        64        64        64        64 
total reads: 6152
bank skew: 67/64 = 1.05
chip skew: 1027/1024 = 1.00
number of total write accesses:
dram[0]:        32        36        32        32        22        28         0         0         0         0        20        23        32        32        32        32 
dram[1]:        37        32        32        34        22        22         0         0         0         0        22        23        32        32        32        37 
dram[2]:        37        32        32        32        27        20         0         0         0         0        20        22        32        32        32        32 
dram[3]:        32        37        35        32        23        20         0         0         0         0        21        25        32        32        37        32 
dram[4]:        32        37        32        32        22        25         0         0         0         0        22        22        32        32        32        32 
dram[5]:        36        32        32        35        22        21         0         0         0         0        26        22        32        32        32        38 
total reads: 2130
min_bank_accesses = 0!
chip skew: 360/350 = 1.03
average mf latency per bank:
dram[0]:       2139      1258      2148      1350      3017      1944      8310      4016      5357      3728      2843      2127      1806      1542      1966      1373
dram[1]:       1297      1241      1339      1207      2096      1905      4047      3404      3987      3518      2107      1834      1545      1318      1443      1165
dram[2]:       1265      2269      1381      2232      1943      3297      4212      8486      3842      5633      2317      2745      1553      1829      1454      1969
dram[3]:       1226      1347      1185      1396      1842      2511      3502      4091      3464      4080      1943      1868      1297      1597      1219      1434
dram[4]:       2207      1325      2192      1443      3014      2342      8389      4307      5532      3909      2712      2113      1897      1535      1916      1446
dram[5]:       1355      1212      1364      1193      2138      2032      4096      3410      3922      3378      1958      1828      1543      1300      1482      1214
maximum mf latency per bank:
dram[0]:       1329       575      1209       600      1307       562      1379       506      1281       567      1341       495       440       448       378       410
dram[1]:        491       550       495       486       510       533       471       597       421       611       465       427       444       430       390       369
dram[2]:        438      1395       487      1287       461      1362       459      1413       433      1377       426      1317       431       473       373       396
dram[3]:        539       629       491       682       559       700       557       746       577       632       448       339       381       407       410       393
dram[4]:       1341       606      1203       732      1320       708      1369       682      1427       598      1305       467       485       442       426       377
dram[5]:        515       547       513       450       524       471       536       509       414       446       431       406       400       382       378       399

Number of Memory Banks Accessed per Memory Operation per Warp (from 0):
0	0	0	0	0	0	0	0	0	0	0	0	0	0	0	0	0	0	0	0	0	0	0	0	0	0	0	0	0	0	0	0	0	0	0	0	0	0	0	0	0	0	0	0	0	0	0	0	0	0	0	0	0	0	0	0	0	0	0	0	0	0	0	0	0	0	0	0	0	0	0	0	0	0	0	0	0	0	0	0	0	0	0	0	0	0	0	0	0	0	0	0	0	0	0	0	
Average # of Memory Banks Accessed per Memory Operation per Warp=-nan

position of mrq chosen
0	0	0	0	0	0	0	0	0	0	0	0	0	0	0	0	

average position of mrq chosen = -nan
Memory Partition 0: 
Cache L2_bank_000:
MSHR contents

Cache L2_bank_001:
MSHR contents

In Dram Latency Queue (total = 0): 
DRAM[0]: 16 bks, busW=4 BL=8 CL=12, tRRD=2 tCCD=6, tRCD=12 tRAS=28 tRP=12 tRC=40
n_cmd=475090 n_nop=472611 n_act=44 n_pre=28 n_req=1380 n_rd=2054 n_write=353 bw_util=0.01013
n_activity=16927 dram_eff=0.2844
bk0: 134a 474087i bk1: 128a 474152i bk2: 128a 474081i bk3: 128a 474087i bk4: 128a 474220i bk5: 128a 474126i bk6: 128a 474557i bk7: 128a 474579i bk8: 128a 474731i bk9: 128a 474736i bk10: 128a 474325i bk11: 128a 474304i bk12: 128a 474108i bk13: 128a 474154i bk14: 128a 474183i bk15: 128a 474254i 
dram_util_bins: 0 0 0 0 0 0 0 0 0 0
dram_eff_bins: 0 0 0 0 0 0 0 0 0 0
mrqq: max=15 avg=0.037254
Memory Partition 1: 
Cache L2_bank_002:
MSHR contents

Cache L2_bank_003:
MSHR contents

In Dram Latency Queue (total = 0): 
DRAM[1]: 16 bks, busW=4 BL=8 CL=12, tRRD=2 tCCD=6, tRCD=12 tRAS=28 tRP=12 tRC=40
n_cmd=475090 n_nop=472611 n_act=43 n_pre=27 n_req=1383 n_rd=2052 n_write=357 bw_util=0.01014
n_activity=17096 dram_eff=0.2818
bk0: 132a 474143i bk1: 128a 474142i bk2: 128a 474139i bk3: 128a 474084i bk4: 128a 474212i bk5: 128a 474166i bk6: 128a 474606i bk7: 128a 474720i bk8: 128a 474750i bk9: 128a 474737i bk10: 128a 474434i bk11: 128a 474369i bk12: 128a 474168i bk13: 128a 474177i bk14: 128a 474186i bk15: 128a 474150i 
dram_util_bins: 0 0 0 0 0 0 0 0 0 0
dram_eff_bins: 0 0 0 0 0 0 0 0 0 0
mrqq: max=10 avg=0.0324465
Memory Partition 2: 
Cache L2_bank_004:
MSHR contents

Cache L2_bank_005:
MSHR contents

In Dram Latency Queue (total = 0): 
DRAM[2]: 16 bks, busW=4 BL=8 CL=12, tRRD=2 tCCD=6, tRCD=12 tRAS=28 tRP=12 tRC=40
n_cmd=475090 n_nop=472620 n_act=42 n_pre=26 n_req=1376 n_rd=2052 n_write=350 bw_util=0.01011
n_activity=16866 dram_eff=0.2848
bk0: 132a 474164i bk1: 128a 474125i bk2: 128a 474144i bk3: 128a 474021i bk4: 128a 474238i bk5: 128a 474222i bk6: 128a 474737i bk7: 128a 474533i bk8: 128a 474759i bk9: 128a 474719i bk10: 128a 474345i bk11: 128a 474233i bk12: 128a 474097i bk13: 128a 474099i bk14: 128a 474224i bk15: 128a 474118i 
dram_util_bins: 0 0 0 0 0 0 0 0 0 0
dram_eff_bins: 0 0 0 0 0 0 0 0 0 0
mrqq: max=13 avg=0.0380223
Memory Partition 3: 
Cache L2_bank_006:
MSHR contents

Cache L2_bank_007:
MSHR contents

In Dram Latency Queue (total = 0): 
DRAM[3]: 16 bks, busW=4 BL=8 CL=12, tRRD=2 tCCD=6, tRCD=12 tRAS=28 tRP=12 tRC=40
n_cmd=475090 n_nop=472616 n_act=41 n_pre=25 n_req=1383 n_rd=2050 n_write=358 bw_util=0.01014
n_activity=16742 dram_eff=0.2877
bk0: 130a 474166i bk1: 128a 474135i bk2: 128a 474135i bk3: 128a 474065i bk4: 128a 474229i bk5: 128a 474187i bk6: 128a 474757i bk7: 128a 474565i bk8: 128a 474764i bk9: 128a 474696i bk10: 128a 474385i bk11: 128a 474343i bk12: 128a 474214i bk13: 128a 474170i bk14: 128a 474154i bk15: 128a 474170i 
dram_util_bins: 0 0 0 0 0 0 0 0 0 0
dram_eff_bins: 0 0 0 0 0 0 0 0 0 0
mrqq: max=9 avg=0.0316866
Memory Partition 4: 
Cache L2_bank_008:
MSHR contents

Cache L2_bank_009:
MSHR contents

In Dram Latency Queue (total = 0): 
DRAM[4]: 16 bks, busW=4 BL=8 CL=12, tRRD=2 tCCD=6, tRCD=12 tRAS=28 tRP=12 tRC=40
n_cmd=475090 n_nop=472624 n_act=41 n_pre=25 n_req=1376 n_rd=2048 n_write=352 bw_util=0.0101
n_activity=16621 dram_eff=0.2888
bk0: 128a 474180i bk1: 128a 474134i bk2: 128a 474072i bk3: 128a 474081i bk4: 128a 474212i bk5: 128a 474149i bk6: 128a 474599i bk7: 128a 474535i bk8: 128a 474748i bk9: 128a 474720i bk10: 128a 474273i bk11: 128a 474270i bk12: 128a 474112i bk13: 128a 474190i bk14: 128a 474138i bk15: 128a 474225i 
dram_util_bins: 0 0 0 0 0 0 0 0 0 0
dram_eff_bins: 0 0 0 0 0 0 0 0 0 0
mrqq: max=16 avg=0.0396241
Memory Partition 5: 
Cache L2_bank_010:
MSHR contents

Cache L2_bank_011:
MSHR contents

In Dram Latency Queue (total = 0): 
DRAM[5]: 16 bks, busW=4 BL=8 CL=12, tRRD=2 tCCD=6, tRCD=12 tRAS=28 tRP=12 tRC=40
n_cmd=475090 n_nop=472618 n_act=40 n_pre=24 n_req=1384 n_rd=2048 n_write=360 bw_util=0.01014
n_activity=16837 dram_eff=0.286
bk0: 128a 474164i bk1: 128a 474189i bk2: 128a 474098i bk3: 128a 474094i bk4: 128a 474176i bk5: 128a 474218i bk6: 128a 474572i bk7: 128a 474740i bk8: 128a 474733i bk9: 128a 474737i bk10: 128a 474344i bk11: 128a 474367i bk12: 128a 474179i bk13: 128a 474224i bk14: 128a 474143i bk15: 128a 474145i 
dram_util_bins: 0 0 0 0 0 0 0 0 0 0
dram_eff_bins: 0 0 0 0 0 0 0 0 0 0
mrqq: max=11 avg=0.0338336

========= L2 cache stats =========
L2_cache_bank[0]: Access = 9376, Miss = 515, Miss_rate = 0.055, Pending_hits = 71, Reservation_fails = 442
L2_cache_bank[1]: Access = 6850, Miss = 512, Miss_rate = 0.075, Pending_hits = 53, Reservation_fails = 0
L2_cache_bank[2]: Access = 7592, Miss = 514, Miss_rate = 0.068, Pending_hits = 32, Reservation_fails = 104
L2_cache_bank[3]: Access = 6332, Miss = 512, Miss_rate = 0.081, Pending_hits = 36, Reservation_fails = 0
L2_cache_bank[4]: Access = 6956, Miss = 514, Miss_rate = 0.074, Pending_hits = 53, Reservation_fails = 1
L2_cache_bank[5]: Access = 9326, Miss = 512, Miss_rate = 0.055, Pending_hits = 67, Reservation_fails = 125
L2_cache_bank[6]: Access = 6384, Miss = 513, Miss_rate = 0.080, Pending_hits = 40, Reservation_fails = 0
L2_cache_bank[7]: Access = 7576, Miss = 512, Miss_rate = 0.068, Pending_hits = 30, Reservation_fails = 0
L2_cache_bank[8]: Access = 9297, Miss = 512, Miss_rate = 0.055, Pending_hits = 65, Reservation_fails = 233
L2_cache_bank[9]: Access = 6905, Miss = 512, Miss_rate = 0.074, Pending_hits = 53, Reservation_fails = 0
L2_cache_bank[10]: Access = 7559, Miss = 512, Miss_rate = 0.068, Pending_hits = 28, Reservation_fails = 0
L2_cache_bank[11]: Access = 6370, Miss = 512, Miss_rate = 0.080, Pending_hits = 39, Reservation_fails = 0
L2_total_cache_accesses = 90523
L2_total_cache_misses = 6152
L2_total_cache_miss_rate = 0.0680
L2_total_cache_pending_hits = 567
L2_total_cache_reservation_fails = 905
L2_total_cache_breakdown:
	L2_cache_stats_breakdown[GLOBAL_ACC_R][HIT] = 81741
	L2_cache_stats_breakdown[GLOBAL_ACC_R][HIT_RESERVED] = 470
	L2_cache_stats_breakdown[GLOBAL_ACC_R][MISS] = 4096
	L2_cache_stats_breakdown[GLOBAL_ACC_R][RESERVATION_FAIL] = 453
	L2_cache_stats_breakdown[CONST_ACC_R][HIT] = 11
	L2_cache_stats_breakdown[CONST_ACC_R][HIT_RESERVED] = 3
	L2_cache_stats_breakdown[CONST_ACC_R][MISS] = 1
	L2_cache_stats_breakdown[CONST_ACC_R][RESERVATION_FAIL] = 109
	L2_cache_stats_breakdown[GLOBAL_ACC_W][HIT] = 1966
	L2_cache_stats_breakdown[GLOBAL_ACC_W][HIT_RESERVED] = 82
	L2_cache_stats_breakdown[GLOBAL_ACC_W][MISS] = 2048
	L2_cache_stats_breakdown[GLOBAL_ACC_W][RESERVATION_FAIL] = 6
	L2_cache_stats_breakdown[INST_ACC_R][HIT] = 86
	L2_cache_stats_breakdown[INST_ACC_R][HIT_RESERVED] = 12
	L2_cache_stats_breakdown[INST_ACC_R][MISS] = 7
	L2_cache_stats_breakdown[INST_ACC_R][RESERVATION_FAIL] = 337
L2_cache_data_port_util = 0.077
L2_cache_fill_port_util = 0.006

icnt_total_pkts_mem_to_simt=436201
icnt_total_pkts_simt_to_mem=98715
LD_mem_lat_dist  0 0 0 0 0 0 0 0 0 0 0 0 0 0 0 0 0 0 0 0 0 0 0 0 0 0 0
ST_mem_lat_dist  0 0 0 0 0 0 0 0 0 0 0 0 0 0 0 0 0 0 0 0 0 0 0 0 0 0 0
----------------------------Interconnect-DETAILS--------------------------------
Class 0:
Packet latency average = 23.0178
	minimum = 6
	maximum = 987
Network latency average = 18.0952
	minimum = 6
	maximum = 680
Slowest packet = 296
Flit latency average = 16.6863
	minimum = 6
	maximum = 680
Slowest flit = 2345
Fragmentation average = 0
	minimum = 0
	maximum = 0
Injected packet rate average = 0.0186304
	minimum = 0.0157925 (at node 4)
	maximum = 0.0260505 (at node 15)
Accepted packet rate average = 0.0186304
	minimum = 0.0157925 (at node 4)
	maximum = 0.0260505 (at node 15)
Injected flit rate average = 0.0550452
	minimum = 0.017304 (at node 4)
	maximum = 0.12639 (at node 15)
Accepted flit rate average= 0.0550452
	minimum = 0.0195045 (at node 18)
	maximum = 0.0888149 (at node 3)
Injected packet length average = 2.95459
Accepted packet length average = 2.95459
Total in-flight flits = 0 (0 measured)
====== Overall Traffic Statistics ======
====== Traffic class 0 ======
Packet latency average = 23.0178 (1 samples)
	minimum = 6 (1 samples)
	maximum = 987 (1 samples)
Network latency average = 18.0952 (1 samples)
	minimum = 6 (1 samples)
	maximum = 680 (1 samples)
Flit latency average = 16.6863 (1 samples)
	minimum = 6 (1 samples)
	maximum = 680 (1 samples)
Fragmentation average = 0 (1 samples)
	minimum = 0 (1 samples)
	maximum = 0 (1 samples)
Injected packet rate average = 0.0186304 (1 samples)
	minimum = 0.0157925 (1 samples)
	maximum = 0.0260505 (1 samples)
Accepted packet rate average = 0.0186304 (1 samples)
	minimum = 0.0157925 (1 samples)
	maximum = 0.0260505 (1 samples)
Injected flit rate average = 0.0550452 (1 samples)
	minimum = 0.017304 (1 samples)
	maximum = 0.12639 (1 samples)
Accepted flit rate average = 0.0550452 (1 samples)
	minimum = 0.0195045 (1 samples)
	maximum = 0.0888149 (1 samples)
Injected packet size average = 2.95459 (1 samples)
Accepted packet size average = 2.95459 (1 samples)
Hops average = 1 (1 samples)
----------------------------END-of-Interconnect-DETAILS-------------------------


gpgpu_simulation_time = 0 days, 0 hrs, 2 min, 33 sec (153 sec)
gpgpu_simulation_rate = 457466 (inst/sec)
gpgpu_simulation_rate = 2352 (cycle/sec)
The GPU Elapsed Time:152.739701 Sec.
The CPU Elapsed Time:0.052379 Sec.
Verifying
Verify Success!!
