

        *** GPGPU-Sim Simulator Version 3.2.2  [build 0] ***


GPGPU-Sim PTX: simulation mode 0 (can change with PTX_SIM_MODE_FUNC environment variable:
               1=functional simulation only, 0=detailed performance simulator)
GPGPU-Sim PTX: overriding embedded ptx with ptx file (PTX_SIM_USE_PTX_FILE is set)
DEBUG2 File name parsing = mm.ptx
GPGPU-Sim: Configuration options:

-network_mode                           1 # Interconnection network mode
-inter_config_file   config_fermi_islip.icnt # Interconnection network config file
-gpgpu_ptx_use_cuobjdump                    1 # Use cuobjdump to extract ptx and sass from binaries
-gpgpu_experimental_lib_support                    0 # Try to extract code from cuda libraries [Broken because of unknown cudaGetExportTable]
-gpgpu_ptx_convert_to_ptxplus                    0 # Convert SASS (native ISA) to ptxplus and run ptxplus
-gpgpu_ptx_force_max_capability                   20 # Force maximum compute capability
-gpgpu_ptx_inst_debug_to_file                    0 # Dump executed instructions' debug information to file
-gpgpu_ptx_inst_debug_file       inst_debug.txt # Executed instructions' debug output file
-gpgpu_ptx_inst_debug_thread_uid                    1 # Thread UID for executed instructions' debug output
-gpgpu_simd_model                       1 # 1 = post-dominator
-gpgpu_shader_core_pipeline              1536:32 # shader core pipeline config, i.e., {<nthread>:<warpsize>}
-gpgpu_tex_cache:l1  4:128:24,L:R:m:N:L,F:128:4,128:2 # per-shader L1 texture cache  (READ-ONLY) config  {<nsets>:<bsize>:<assoc>,<rep>:<wr>:<alloc>:<wr_alloc>,<mshr>:<N>:<merge>,<mq>:<rf>}
-gpgpu_const_cache:l1 64:64:2,L:R:f:N:L,A:2:32,4 # per-shader L1 constant memory cache  (READ-ONLY) config  {<nsets>:<bsize>:<assoc>,<rep>:<wr>:<alloc>:<wr_alloc>,<mshr>:<N>:<merge>,<mq>} 
-gpgpu_cache:il1     4:128:4,L:R:f:N:L,A:2:32,4 # shader L1 instruction cache config  {<nsets>:<bsize>:<assoc>,<rep>:<wr>:<alloc>:<wr_alloc>,<mshr>:<N>:<merge>,<mq>} 
-gpgpu_cache:dl1     32:128:4,L:L:m:N:H,A:32:8,8 # per-shader L1 data cache config  {<nsets>:<bsize>:<assoc>,<rep>:<wr>:<alloc>:<wr_alloc>,<mshr>:<N>:<merge>,<mq> | none}
-gpgpu_cache:dl1PrefL1                 none # per-shader L1 data cache config  {<nsets>:<bsize>:<assoc>,<rep>:<wr>:<alloc>:<wr_alloc>,<mshr>:<N>:<merge>,<mq> | none}
-gpgpu_cache:dl1PreShared                 none # per-shader L1 data cache config  {<nsets>:<bsize>:<assoc>,<rep>:<wr>:<alloc>:<wr_alloc>,<mshr>:<N>:<merge>,<mq> | none}
-gmem_skip_L1D                          0 # global memory access skip L1D cache (implements -Xptxas -dlcm=cg, default=no skip)
-gpgpu_perfect_mem                      0 # enable perfect memory mode (no cache miss)
-n_regfile_gating_group                    4 # group of lanes that should be read/written together)
-gpgpu_clock_gated_reg_file                    0 # enable clock gated reg file for power calculations
-gpgpu_clock_gated_lanes                    0 # enable clock gated lanes for power calculations
-gpgpu_shader_registers                32768 # Number of registers per shader core. Limits number of concurrent CTAs. (default 8192)
-gpgpu_shader_cta                       8 # Maximum number of concurrent CTAs in shader (default 8)
-gpgpu_num_cta_barriers                   16 # Maximum number of named barriers per CTA (default 16)
-gpgpu_n_clusters                      15 # number of processing clusters
-gpgpu_n_cores_per_cluster                    1 # number of simd cores per cluster
-gpgpu_n_cluster_ejection_buffer_size                    8 # number of packets in ejection buffer
-gpgpu_n_ldst_response_buffer_size                    2 # number of response packets in ld/st unit ejection buffer
-gpgpu_shmem_size                   16384 # Size of shared memory per shader core (default 16kB)
-gpgpu_shmem_size                   49152 # Size of shared memory per shader core (default 16kB)
-gpgpu_shmem_size_PrefL1                16384 # Size of shared memory per shader core (default 16kB)
-gpgpu_shmem_size_PrefShared                16384 # Size of shared memory per shader core (default 16kB)
-gpgpu_shmem_num_banks                   32 # Number of banks in the shared memory in each shader core (default 16)
-gpgpu_shmem_limited_broadcast                    0 # Limit shared memory to do one broadcast per cycle (default on)
-gpgpu_shmem_warp_parts                    1 # Number of portions a warp is divided into for shared memory bank conflict check 
-gpgpu_warpdistro_shader                   -1 # Specify which shader core to collect the warp size distribution from
-gpgpu_warp_issue_shader                    0 # Specify which shader core to collect the warp issue distribution from
-gpgpu_local_mem_map                    1 # Mapping from local memory space address to simulated GPU physical address space (default = enabled)
-gpgpu_num_reg_banks                   16 # Number of register banks (default = 8)
-gpgpu_reg_bank_use_warp_id                    0 # Use warp ID in mapping registers to banks (default = off)
-gpgpu_operand_collector_num_units_sp                    6 # number of collector units (default = 4)
-gpgpu_operand_collector_num_units_sfu                    8 # number of collector units (default = 4)
-gpgpu_operand_collector_num_units_mem                    2 # number of collector units (default = 2)
-gpgpu_operand_collector_num_units_gen                    0 # number of collector units (default = 0)
-gpgpu_operand_collector_num_in_ports_sp                    2 # number of collector unit in ports (default = 1)
-gpgpu_operand_collector_num_in_ports_sfu                    1 # number of collector unit in ports (default = 1)
-gpgpu_operand_collector_num_in_ports_mem                    1 # number of collector unit in ports (default = 1)
-gpgpu_operand_collector_num_in_ports_gen                    0 # number of collector unit in ports (default = 0)
-gpgpu_operand_collector_num_out_ports_sp                    2 # number of collector unit in ports (default = 1)
-gpgpu_operand_collector_num_out_ports_sfu                    1 # number of collector unit in ports (default = 1)
-gpgpu_operand_collector_num_out_ports_mem                    1 # number of collector unit in ports (default = 1)
-gpgpu_operand_collector_num_out_ports_gen                    0 # number of collector unit in ports (default = 0)
-gpgpu_coalesce_arch                   13 # Coalescing arch (default = 13, anything else is off for now)
-gpgpu_num_sched_per_core                    2 # Number of warp schedulers per core
-gpgpu_max_insn_issue_per_warp                    1 # Max number of instructions that can be issued per warp in one cycle by scheduler
-gpgpu_simt_core_sim_order                    1 # Select the simulation order of cores in a cluster (0=Fix, 1=Round-Robin)
-gpgpu_pipeline_widths        2,1,1,2,1,1,2 # Pipeline widths ID_OC_SP,ID_OC_SFU,ID_OC_MEM,OC_EX_SP,OC_EX_SFU,OC_EX_MEM,EX_WB
-gpgpu_num_sp_units                     2 # Number of SP units (default=1)
-gpgpu_num_sfu_units                    1 # Number of SF units (default=1)
-gpgpu_num_mem_units                    1 # Number if ldst units (default=1) WARNING: not hooked up to anything
-gpgpu_scheduler                      gto # Scheduler configuration: < lrr | gto | two_level_active > If two_level_active:<num_active_warps>:<inner_prioritization>:<outer_prioritization>For complete list of prioritization values see shader.h enum scheduler_prioritization_typeDefault: gto
-gpgpu_dram_scheduler                    1 # 0 = fifo, 1 = FR-FCFS (defaul)
-gpgpu_dram_partition_queues              8:8:8:8 # i2$:$2d:d2$:$2i
-l2_ideal                               0 # Use a ideal L2 cache that always hit
-gpgpu_cache:dl2     64:128:8,L:B:m:W:L,A:32:4,4:0,32 # unified banked L2 data cache config  {<nsets>:<bsize>:<assoc>,<rep>:<wr>:<alloc>:<wr_alloc>,<mshr>:<N>:<merge>,<mq>}
-gpgpu_cache:dl2_texture_only                    0 # L2 cache used for texture only
-gpgpu_n_mem                            6 # number of memory modules (e.g. memory controllers) in gpu
-gpgpu_n_sub_partition_per_mchannel                    2 # number of memory subpartition in each memory module
-gpgpu_n_mem_per_ctrlr                    2 # number of memory chips per memory controller
-gpgpu_memlatency_stat                   14 # track and display latency statistics 0x2 enables MC, 0x4 enables queue logs
-gpgpu_frfcfs_dram_sched_queue_size                   16 # 0 = unlimited (default); # entries per chip
-gpgpu_dram_return_queue_size                  116 # 0 = unlimited (default); # entries per chip
-gpgpu_dram_buswidth                    4 # default = 4 bytes (8 bytes per cycle at DDR)
-gpgpu_dram_burst_length                    8 # Burst length of each DRAM request (default = 4 data bus cycle)
-dram_data_command_freq_ratio                    4 # Frequency ratio between DRAM data bus and command bus (default = 2 times, i.e. DDR)
-gpgpu_dram_timing_opt nbk=16:CCD=2:RRD=6:RCD=12:RAS=28:RP=12:RC=40: CL=12:WL=4:CDLR=5:WR=12:nbkgrp=4:CCDL=3:RTPL=2 # DRAM timing parameters = {nbk:tCCD:tRRD:tRCD:tRAS:tRP:tRC:CL:WL:tCDLR:tWR:nbkgrp:tCCDL:tRTPL}
-rop_latency                          120 # ROP queue latency (default 85)
-dram_latency                         100 # DRAM latency (default 30)
-gpgpu_mem_addr_mapping dramid@8;00000000.00000000.00000000.00000000.0000RRRR.RRRRRRRR.BBBCCCCB.CCSSSSSS # mapping memory address to dram model {dramid@<start bit>;<memory address map>}
-gpgpu_mem_addr_test                    0 # run sweep test to check address mapping for aliased address
-gpgpu_mem_address_mask                    1 # 0 = old addressing mask, 1 = new addressing mask, 2 = new add. mask + flipped bank sel and chip sel bits
-gpuwattch_xml_file  gpuwattch_gtx480.xml # GPUWattch XML file
-power_simulation_enabled                    1 # Turn on power simulator (1=On, 0=Off)
-power_per_cycle_dump                    0 # Dump detailed power output each cycle
-power_trace_enabled                    0 # produce a file for the power trace (1=On, 0=Off)
-power_trace_zlevel                     6 # Compression level of the power trace output log (0=no comp, 9=highest)
-steady_power_levels_enabled                    0 # produce a file for the steady power levels (1=On, 0=Off)
-steady_state_definition                  8:4 # allowed deviation:number of samples
-gpgpu_max_cycle                        0 # terminates gpu simulation early (0 = no limit)
-gpgpu_max_insn                         0 # terminates gpu simulation early (0 = no limit)
-gpgpu_max_cta                          0 # terminates gpu simulation early (0 = no limit)
-gpgpu_runtime_stat                   500 # display runtime statistics such as dram utilization {<freq>:<flag>}
-liveness_message_freq                    1 # Minimum number of seconds between simulation liveness messages (0 = always print)
-gpgpu_flush_l1_cache                    0 # Flush L1 cache at the end of each kernel call
-gpgpu_flush_l2_cache                    0 # Flush L2 cache at the end of each kernel call
-gpgpu_deadlock_detect                    1 # Stop the simulation at deadlock (1=on (default), 0=off)
-gpgpu_ptx_instruction_classification                    0 # if enabled will classify ptx instruction types per kernel (Max 255 kernels now)
-gpgpu_ptx_sim_mode                     0 # Select between Performance (default) or Functional simulation (1)
-gpgpu_clock_domains 700.0:700.0:700.0:924.0 # Clock Domain Frequencies in MhZ {<Core Clock>:<ICNT Clock>:<L2 Clock>:<DRAM Clock>}
-gpgpu_max_concurrent_kernel                    8 # maximum kernels that can run concurrently on GPU
-gpgpu_cflog_interval                    0 # Interval between each snapshot in control flow logger
-visualizer_enabled                     0 # Turn on visualizer output (1=On, 0=Off)
-visualizer_outputfile                 NULL # Specifies the output log file for visualizer
-visualizer_zlevel                      6 # Compression level of the visualizer output log (0=no comp, 9=highest)
-trace_enabled                          0 # Turn on traces
-trace_components                    none # comma seperated list of traces to enable. Complete list found in trace_streams.tup. Default none
-trace_sampling_core                    0 # The core which is printed using CORE_DPRINTF. Default 0
-trace_sampling_memory_partition                   -1 # The memory partition which is printed using MEMPART_DPRINTF. Default -1 (i.e. all)
-enable_ptx_file_line_stats                    1 # Turn on PTX source line statistic profiling. (1 = On)
-ptx_line_stats_filename gpgpu_inst_stats.txt # Output file for PTX source line statistics.
-save_embedded_ptx                      0 # saves ptx files embedded in binary as <n>.ptx
-keep                                   0 # keep intermediate files created by GPGPU-Sim when interfacing with external programs
-gpgpu_ptx_save_converted_ptxplus                    0 # Saved converted ptxplus to a file
-ptx_opcode_latency_int         4,13,4,5,145 # Opcode latencies for integers <ADD,MAX,MUL,MAD,DIV>Default 1,1,19,25,145
-ptx_opcode_latency_fp          4,13,4,5,39 # Opcode latencies for single precision floating points <ADD,MAX,MUL,MAD,DIV>Default 1,1,1,1,30
-ptx_opcode_latency_dp         8,19,8,8,330 # Opcode latencies for double precision floating points <ADD,MAX,MUL,MAD,DIV>Default 8,8,8,8,335
-ptx_opcode_initiation_int            1,2,2,1,8 # Opcode initiation intervals for integers <ADD,MAX,MUL,MAD,DIV>Default 1,1,4,4,32
-ptx_opcode_initiation_fp            1,2,1,1,4 # Opcode initiation intervals for single precision floating points <ADD,MAX,MUL,MAD,DIV>Default 1,1,1,1,5
-ptx_opcode_initiation_dp         8,16,8,8,130 # Opcode initiation intervals for double precision floating points <ADD,MAX,MUL,MAD,DIV>Default 8,8,8,8,130
DRAM Timing Options:
nbk                                    16 # number of banks
CCD                                     2 # column to column delay
RRD                                     6 # minimal delay between activation of rows in different banks
RCD                                    12 # row to column delay
RAS                                    28 # time needed to activate row
RP                                     12 # time needed to precharge (deactivate) row
RC                                     40 # row cycle time
CDLR                                    5 # switching from write to read (changes tWTR)
WR                                     12 # last data-in to row precharge
CL                                     12 # CAS latency
WL                                      4 # Write latency
nbkgrp                                  4 # number of bank groups
CCDL                                    3 # column to column delay between accesses to different bank groups
RTPL                                    2 # read to precharge delay between accesses to different bank groups
Total number of memory sub partition = 12
addr_dec_mask[CHIP]  = 0000000000000000 	high:64 low:0
addr_dec_mask[BK]    = 000000000000e100 	high:16 low:8
addr_dec_mask[ROW]   = 000000000fff0000 	high:28 low:16
addr_dec_mask[COL]   = 0000000000001eff 	high:13 low:0
addr_dec_mask[BURST] = 000000000000003f 	high:6 low:0
sub_partition_id_mask = 0000000000000100
GPGPU-Sim uArch: clock freqs: 700000000.000000:700000000.000000:700000000.000000:924000000.000000
GPGPU-Sim uArch: clock periods: 0.00000000142857142857:0.00000000142857142857:0.00000000142857142857:0.00000000108225108225
*** Initializing Memory Statistics ***
GPGPU-Sim uArch: interconnect node map (shaderID+MemID to icntID)
GPGPU-Sim uArch: Memory nodes ID start from index: 15
GPGPU-Sim uArch:    0   1   2   3   4
GPGPU-Sim uArch:    5   6   7   8   9
GPGPU-Sim uArch:   10  11  12  13  14
GPGPU-Sim uArch:   15  16  17  18  19
GPGPU-Sim uArch:   20  21  22  23  24
GPGPU-Sim uArch:   25  26
GPGPU-Sim uArch: interconnect node reverse map (icntID to shaderID+MemID)
GPGPU-Sim uArch: Memory nodes start from ID: 15
GPGPU-Sim uArch:    0   1   2   3   4
GPGPU-Sim uArch:    5   6   7   8   9
GPGPU-Sim uArch:   10  11  12  13  14
GPGPU-Sim uArch:   15  16  17  18  19
GPGPU-Sim uArch:   20  21  22  23  24
GPGPU-Sim uArch:   25  26
c666e9895d87a187390a3db0aff1f11a  /home/min/a/gupta286/ece695_ftc/gpgpusim-workloads/matrixMulOpt/mm
GPGPU-Sim uArch: performance model initialization complete.
GPGPU-Sim PTX: __cudaRegisterFatBinary, fat_cubin_handle = 1, filename=matrixMul.cu
self exe links to: /home/min/a/gupta286/ece695_ftc/gpgpusim-workloads/matrixMulOpt/mm
Running md5sum using "md5sum /home/min/a/gupta286/ece695_ftc/gpgpusim-workloads/matrixMulOpt/mm "
Running cuobjdump using "$CUDA_INSTALL_PATH/bin/cuobjdump -ptx -elf -sass /home/min/a/gupta286/ece695_ftc/gpgpusim-workloads/matrixMulOpt/mm > _cuobjdump_complete_output_K5cV0r"
Parsing file _cuobjdump_complete_output_K5cV0r
######### cuobjdump parser ########
## Adding new section ELF
Adding arch: sm_20
Adding identifier: matrixMul.cu
## Adding new section PTX
Adding ptx filename: _cuobjdump_1.ptx
Adding arch: sm_20
Adding identifier: matrixMul.cu
Done parsing!!!
GPGPU-Sim PTX: __cudaRegisterFunction _Z12matrixMulGPUPiS_S_i : hostFun 0x0x401226, fat_cubin_handle = 1
DEBUG File name parsing 2 = mm.ptx
GPGPU-Sim PTX: overriding embedded ptx with 'mm.ptx' (PTX_SIM_USE_PTX_FILE is set)
GPGPU-Sim PTX: allocating shared region for "__cuda_local_var_16200_38_non_const_As" from 0x0 to 0x400 (shared memory space)
GPGPU-Sim PTX: allocating shared region for "__cuda_local_var_16204_38_non_const_Bs" from 0x400 to 0x800 (shared memory space)
GPGPU-Sim PTX: instruction assembly for function '_Z12matrixMulGPUPiS_S_i'...   done.
GPGPU-Sim PTX: finding reconvergence points for '_Z12matrixMulGPUPiS_S_i'...
GPGPU-Sim PTX: Finding dominators for '_Z12matrixMulGPUPiS_S_i'...
GPGPU-Sim PTX: Finding immediate dominators for '_Z12matrixMulGPUPiS_S_i'...
GPGPU-Sim PTX: Finding postdominators for '_Z12matrixMulGPUPiS_S_i'...
GPGPU-Sim PTX: Finding immediate postdominators for '_Z12matrixMulGPUPiS_S_i'...
GPGPU-Sim PTX: pre-decoding instructions for '_Z12matrixMulGPUPiS_S_i'...
GPGPU-Sim PTX: reconvergence points for _Z12matrixMulGPUPiS_S_i...
GPGPU-Sim PTX:  1 (potential) branch divergence @  PC=0x078 (_1.ptx:52) @%p1 bra BB0_3;
GPGPU-Sim PTX:    immediate post dominator      @  PC=0x308 (_1.ptx:152) mov.u32 %r122, %ctaid.y;
GPGPU-Sim PTX:  2 (potential) branch divergence @  PC=0x2f0 (_1.ptx:144) @%p2 bra BB0_2;
GPGPU-Sim PTX:    immediate post dominator      @  PC=0x2f8 (_1.ptx:145) bra.uni BB0_4;
GPGPU-Sim PTX:  3 (potential) branch divergence @  PC=0x2f8 (_1.ptx:145) bra.uni BB0_4;
GPGPU-Sim PTX:    immediate post dominator      @  PC=0x308 (_1.ptx:152) mov.u32 %r122, %ctaid.y;
GPGPU-Sim PTX: ... end of reconvergence points for _Z12matrixMulGPUPiS_S_i
GPGPU-Sim PTX: ... done pre-decoding instructions for '_Z12matrixMulGPUPiS_S_i'.
GPGPU-Sim PTX: finished parsing EMBEDDED .ptx file _1.ptx
Adding _cuobjdump_1.ptx with cubin handle 1
GPGPU-Sim PTX: extracting embedded .ptx to temporary file "_ptx_YoQJAd"
Running: cat _ptx_YoQJAd | sed 's/.version 1.5/.version 1.4/' | sed '/addk_k/d' | sed 's/_quadi//' | sed 's/, texmode_independent//' | sed 's/\(\.extern \.const\[1\] .b8 \w\+\)\[\]/\1\[1\]/' | sed 's/const\[.\]/const\[0\]/g' > _ptx2_4S07dZ
GPGPU-Sim PTX: generating ptxinfo using "$CUDA_INSTALL_PATH/bin/ptxas --gpu-name=sm_20 -v _ptx2_4S07dZ --output-file  /dev/null 2> _ptx_YoQJAdinfo"
GPGPU-Sim PTX: Kernel '_Z12matrixMulGPUPiS_S_i' : regs=26, lmem=0, smem=2048, cmem=60
GPGPU-Sim PTX: removing ptxinfo using "rm -f _ptx_YoQJAd _ptx2_4S07dZ _ptx_YoQJAdinfo"
GPGPU-Sim PTX: loading globals with explicit initializers... 
GPGPU-Sim PTX: finished loading globals (0 bytes total).
GPGPU-Sim PTX: loading constants with explicit initializers...  done.

GPGPU-Sim PTX: cudaLaunch for 0x0x401226 (mode=performance simulation) on stream 0
GPGPU-Sim PTX: pushing kernel '_Z12matrixMulGPUPiS_S_i' to stream 0, gridDim= (64,64,1) blockDim = (16,16,1) 
kernel '_Z12matrixMulGPUPiS_S_i' transfer to GPU hardware scheduler
GPGPU-Sim uArch: Shader 1 bind to kernel 1 '_Z12matrixMulGPUPiS_S_i'
GPGPU-Sim uArch: CTA/core = 4, limited by: regs
GPGPU-Sim uArch: core:  1, cta: 0 initialized @(1,0)
GPGPU-Sim uArch: Shader 2 bind to kernel 1 '_Z12matrixMulGPUPiS_S_i'
GPGPU-Sim uArch: core:  2, cta: 0 initialized @(1,0)
GPGPU-Sim uArch: Shader 3 bind to kernel 1 '_Z12matrixMulGPUPiS_S_i'
GPGPU-Sim uArch: core:  3, cta: 0 initialized @(1,0)
GPGPU-Sim uArch: Shader 4 bind to kernel 1 '_Z12matrixMulGPUPiS_S_i'
GPGPU-Sim uArch: core:  4, cta: 0 initialized @(1,0)
GPGPU-Sim uArch: Shader 5 bind to kernel 1 '_Z12matrixMulGPUPiS_S_i'
GPGPU-Sim uArch: core:  5, cta: 0 initialized @(1,0)
GPGPU-Sim uArch: Shader 6 bind to kernel 1 '_Z12matrixMulGPUPiS_S_i'
GPGPU-Sim uArch: core:  6, cta: 0 initialized @(1,0)
GPGPU-Sim uArch: Shader 7 bind to kernel 1 '_Z12matrixMulGPUPiS_S_i'
GPGPU-Sim uArch: core:  7, cta: 0 initialized @(1,0)
GPGPU-Sim uArch: Shader 8 bind to kernel 1 '_Z12matrixMulGPUPiS_S_i'
GPGPU-Sim uArch: core:  8, cta: 0 initialized @(1,0)
GPGPU-Sim uArch: Shader 9 bind to kernel 1 '_Z12matrixMulGPUPiS_S_i'
GPGPU-Sim uArch: core:  9, cta: 0 initialized @(1,0)
GPGPU-Sim uArch: Shader 10 bind to kernel 1 '_Z12matrixMulGPUPiS_S_i'
GPGPU-Sim uArch: core: 10, cta: 0 initialized @(1,0)
GPGPU-Sim uArch: Shader 11 bind to kernel 1 '_Z12matrixMulGPUPiS_S_i'
GPGPU-Sim uArch: core: 11, cta: 0 initialized @(1,0)
GPGPU-Sim uArch: Shader 12 bind to kernel 1 '_Z12matrixMulGPUPiS_S_i'
GPGPU-Sim uArch: core: 12, cta: 0 initialized @(1,0)
GPGPU-Sim uArch: Shader 13 bind to kernel 1 '_Z12matrixMulGPUPiS_S_i'
GPGPU-Sim uArch: core: 13, cta: 0 initialized @(1,0)
GPGPU-Sim uArch: Shader 14 bind to kernel 1 '_Z12matrixMulGPUPiS_S_i'
GPGPU-Sim uArch: core: 14, cta: 0 initialized @(1,0)
GPGPU-Sim uArch: Shader 0 bind to kernel 1 '_Z12matrixMulGPUPiS_S_i'
GPGPU-Sim uArch: core:  0, cta: 0 initialized @(1,0)
GPGPU-Sim uArch: core:  1, cta: 1 initialized @(2,0)
GPGPU-Sim uArch: core:  2, cta: 1 initialized @(2,0)
GPGPU-Sim uArch: core:  3, cta: 1 initialized @(2,0)
GPGPU-Sim uArch: core:  4, cta: 1 initialized @(2,0)
GPGPU-Sim uArch: core:  5, cta: 1 initialized @(2,0)
GPGPU-Sim uArch: core:  6, cta: 1 initialized @(2,0)
GPGPU-Sim uArch: core:  7, cta: 1 initialized @(2,0)
GPGPU-Sim uArch: core:  8, cta: 1 initialized @(2,0)
GPGPU-Sim uArch: core:  9, cta: 1 initialized @(2,0)
GPGPU-Sim uArch: core: 10, cta: 1 initialized @(2,0)
GPGPU-Sim uArch: core: 11, cta: 1 initialized @(2,0)
GPGPU-Sim uArch: core: 12, cta: 1 initialized @(2,0)
GPGPU-Sim uArch: core: 13, cta: 1 initialized @(2,0)
GPGPU-Sim uArch: core: 14, cta: 1 initialized @(2,0)
GPGPU-Sim uArch: core:  0, cta: 1 initialized @(2,0)
GPGPU-Sim uArch: core:  1, cta: 2 initialized @(3,0)
GPGPU-Sim uArch: core:  2, cta: 2 initialized @(3,0)
GPGPU-Sim uArch: core:  3, cta: 2 initialized @(3,0)
GPGPU-Sim uArch: core:  4, cta: 2 initialized @(3,0)
GPGPU-Sim uArch: core:  5, cta: 2 initialized @(3,0)
GPGPU-Sim uArch: core:  6, cta: 2 initialized @(3,0)
GPGPU-Sim uArch: core:  7, cta: 2 initialized @(3,0)
GPGPU-Sim uArch: core:  8, cta: 2 initialized @(3,0)
GPGPU-Sim uArch: core:  9, cta: 2 initialized @(3,0)
GPGPU-Sim uArch: core: 10, cta: 2 initialized @(3,0)
GPGPU-Sim uArch: core: 11, cta: 2 initialized @(3,0)
GPGPU-Sim uArch: core: 12, cta: 2 initialized @(3,0)
GPGPU-Sim uArch: core: 13, cta: 2 initialized @(3,0)
GPGPU-Sim uArch: core: 14, cta: 2 initialized @(3,0)
GPGPU-Sim uArch: core:  0, cta: 2 initialized @(3,0)
GPGPU-Sim uArch: core:  1, cta: 3 initialized @(4,0)
GPGPU-Sim uArch: core:  2, cta: 3 initialized @(4,0)
GPGPU-Sim uArch: core:  3, cta: 3 initialized @(4,0)
GPGPU-Sim uArch: core:  4, cta: 3 initialized @(4,0)
GPGPU-Sim uArch: core:  5, cta: 3 initialized @(4,0)
GPGPU-Sim uArch: core:  6, cta: 3 initialized @(4,0)
GPGPU-Sim uArch: core:  7, cta: 3 initialized @(4,0)
GPGPU-Sim uArch: core:  8, cta: 3 initialized @(4,0)
GPGPU-Sim uArch: core:  9, cta: 3 initialized @(4,0)
GPGPU-Sim uArch: core: 10, cta: 3 initialized @(4,0)
GPGPU-Sim uArch: core: 11, cta: 3 initialized @(4,0)
GPGPU-Sim uArch: core: 12, cta: 3 initialized @(4,0)
GPGPU-Sim uArch: core: 13, cta: 3 initialized @(4,0)
GPGPU-Sim uArch: core: 14, cta: 3 initialized @(4,0)
GPGPU-Sim uArch: core:  0, cta: 3 initialized @(4,0)
GPGPU-Sim uArch: cycles simulated: 500  inst.: 0 (ipc= 0.0) sim_rate=0 (inst/sec) elapsed = 0:0:00:01 / Fri Dec 16 07:19:37 2016
GPGPU-Sim PTX: 100000 instructions simulated : ctaid=(31,0,0) tid=(15,1,0)
GPGPU-Sim PTX: 200000 instructions simulated : ctaid=(53,0,0) tid=(15,13,0)
GPGPU-Sim PTX: 300000 instructions simulated : ctaid=(35,0,0) tid=(15,3,0)
GPGPU-Sim PTX: 400000 instructions simulated : ctaid=(21,0,0) tid=(15,15,0)
GPGPU-Sim PTX: 500000 instructions simulated : ctaid=(20,0,0) tid=(15,3,0)
GPGPU-Sim uArch: cycles simulated: 2000  inst.: 548256 (ipc=274.1) sim_rate=274128 (inst/sec) elapsed = 0:0:00:02 / Fri Dec 16 07:19:38 2016
GPGPU-Sim PTX: 600000 instructions simulated : ctaid=(10,0,0) tid=(15,5,0)
GPGPU-Sim PTX: 700000 instructions simulated : ctaid=(10,0,0) tid=(15,7,0)
GPGPU-Sim uArch: cycles simulated: 5000  inst.: 749984 (ipc=150.0) sim_rate=249994 (inst/sec) elapsed = 0:0:00:03 / Fri Dec 16 07:19:39 2016
GPGPU-Sim PTX: 800000 instructions simulated : ctaid=(20,0,0) tid=(15,1,0)
GPGPU-Sim PTX: 900000 instructions simulated : ctaid=(13,0,0) tid=(15,11,0)
GPGPU-Sim PTX: 1000000 instructions simulated : ctaid=(37,0,0) tid=(15,11,0)
GPGPU-Sim PTX: 1100000 instructions simulated : ctaid=(14,0,0) tid=(15,9,0)
GPGPU-Sim PTX: 1200000 instructions simulated : ctaid=(37,0,0) tid=(15,7,0)
GPGPU-Sim uArch: cycles simulated: 7500  inst.: 1213792 (ipc=161.8) sim_rate=303448 (inst/sec) elapsed = 0:0:00:04 / Fri Dec 16 07:19:40 2016
GPGPU-Sim PTX: 1300000 instructions simulated : ctaid=(7,0,0) tid=(15,5,0)
GPGPU-Sim PTX: 1400000 instructions simulated : ctaid=(29,0,0) tid=(15,3,0)
GPGPU-Sim PTX: 1500000 instructions simulated : ctaid=(19,0,0) tid=(15,13,0)
GPGPU-Sim PTX: 1600000 instructions simulated : ctaid=(5,0,0) tid=(15,9,0)
GPGPU-Sim PTX: 1700000 instructions simulated : ctaid=(9,0,0) tid=(15,5,0)
GPGPU-Sim uArch: cycles simulated: 10000  inst.: 1716704 (ipc=171.7) sim_rate=343340 (inst/sec) elapsed = 0:0:00:05 / Fri Dec 16 07:19:41 2016
GPGPU-Sim PTX: 1800000 instructions simulated : ctaid=(8,0,0) tid=(15,1,0)
GPGPU-Sim PTX: 1900000 instructions simulated : ctaid=(7,0,0) tid=(15,15,0)
GPGPU-Sim PTX: 2000000 instructions simulated : ctaid=(14,0,0) tid=(15,3,0)
GPGPU-Sim PTX: 2100000 instructions simulated : ctaid=(8,0,0) tid=(15,9,0)
GPGPU-Sim PTX: 2200000 instructions simulated : ctaid=(4,0,0) tid=(15,3,0)
GPGPU-Sim uArch: cycles simulated: 12500  inst.: 2194496 (ipc=175.6) sim_rate=365749 (inst/sec) elapsed = 0:0:00:06 / Fri Dec 16 07:19:42 2016
GPGPU-Sim PTX: 2300000 instructions simulated : ctaid=(29,0,0) tid=(15,7,0)
GPGPU-Sim PTX: 2400000 instructions simulated : ctaid=(40,0,0) tid=(15,7,0)
GPGPU-Sim PTX: 2500000 instructions simulated : ctaid=(4,0,0) tid=(15,5,0)
GPGPU-Sim PTX: 2600000 instructions simulated : ctaid=(20,0,0) tid=(15,15,0)
GPGPU-Sim PTX: 2700000 instructions simulated : ctaid=(15,0,0) tid=(15,15,0)
GPGPU-Sim uArch: cycles simulated: 15000  inst.: 2700896 (ipc=180.1) sim_rate=385842 (inst/sec) elapsed = 0:0:00:07 / Fri Dec 16 07:19:43 2016
GPGPU-Sim PTX: 2800000 instructions simulated : ctaid=(22,0,0) tid=(15,7,0)
GPGPU-Sim PTX: 2900000 instructions simulated : ctaid=(4,0,0) tid=(15,3,0)
GPGPU-Sim PTX: 3000000 instructions simulated : ctaid=(2,0,0) tid=(15,1,0)
GPGPU-Sim PTX: 3100000 instructions simulated : ctaid=(10,0,0) tid=(15,9,0)
GPGPU-Sim PTX: 3200000 instructions simulated : ctaid=(29,0,0) tid=(15,15,0)
GPGPU-Sim uArch: cycles simulated: 17500  inst.: 3186784 (ipc=182.1) sim_rate=398348 (inst/sec) elapsed = 0:0:00:08 / Fri Dec 16 07:19:44 2016
GPGPU-Sim PTX: 3300000 instructions simulated : ctaid=(39,0,0) tid=(15,1,0)
GPGPU-Sim PTX: 3400000 instructions simulated : ctaid=(8,0,0) tid=(15,7,0)
GPGPU-Sim PTX: 3500000 instructions simulated : ctaid=(25,0,0) tid=(15,9,0)
GPGPU-Sim PTX: 3600000 instructions simulated : ctaid=(13,0,0) tid=(15,15,0)
GPGPU-Sim uArch: cycles simulated: 19500  inst.: 3601824 (ipc=184.7) sim_rate=400202 (inst/sec) elapsed = 0:0:00:09 / Fri Dec 16 07:19:45 2016
GPGPU-Sim PTX: 3700000 instructions simulated : ctaid=(9,0,0) tid=(15,7,0)
GPGPU-Sim PTX: 3800000 instructions simulated : ctaid=(20,0,0) tid=(15,1,0)
GPGPU-Sim PTX: 3900000 instructions simulated : ctaid=(29,0,0) tid=(15,7,0)
GPGPU-Sim PTX: 4000000 instructions simulated : ctaid=(3,0,0) tid=(15,7,0)
GPGPU-Sim PTX: 4100000 instructions simulated : ctaid=(0,0,0) tid=(15,9,0)
GPGPU-Sim uArch: cycles simulated: 22000  inst.: 4102816 (ipc=186.5) sim_rate=410281 (inst/sec) elapsed = 0:0:00:10 / Fri Dec 16 07:19:46 2016
GPGPU-Sim PTX: 4200000 instructions simulated : ctaid=(5,0,0) tid=(15,5,0)
GPGPU-Sim PTX: 4300000 instructions simulated : ctaid=(17,0,0) tid=(15,9,0)
GPGPU-Sim PTX: 4400000 instructions simulated : ctaid=(2,0,0) tid=(15,5,0)
GPGPU-Sim PTX: 4500000 instructions simulated : ctaid=(2,0,0) tid=(15,9,0)
GPGPU-Sim PTX: 4600000 instructions simulated : ctaid=(17,0,0) tid=(15,11,0)
GPGPU-Sim uArch: cycles simulated: 24500  inst.: 4599712 (ipc=187.7) sim_rate=418155 (inst/sec) elapsed = 0:0:00:11 / Fri Dec 16 07:19:47 2016
GPGPU-Sim PTX: 4700000 instructions simulated : ctaid=(10,0,0) tid=(15,5,0)
GPGPU-Sim PTX: 4800000 instructions simulated : ctaid=(9,0,0) tid=(15,5,0)
GPGPU-Sim PTX: 4900000 instructions simulated : ctaid=(38,0,0) tid=(15,1,0)
GPGPU-Sim PTX: 5000000 instructions simulated : ctaid=(34,0,0) tid=(15,5,0)
GPGPU-Sim PTX: 5100000 instructions simulated : ctaid=(34,0,0) tid=(15,1,0)
GPGPU-Sim uArch: cycles simulated: 27000  inst.: 5104032 (ipc=189.0) sim_rate=425336 (inst/sec) elapsed = 0:0:00:12 / Fri Dec 16 07:19:48 2016
GPGPU-Sim PTX: 5200000 instructions simulated : ctaid=(0,0,0) tid=(15,7,0)
GPGPU-Sim PTX: 5300000 instructions simulated : ctaid=(1,0,0) tid=(15,15,0)
GPGPU-Sim PTX: 5400000 instructions simulated : ctaid=(30,0,0) tid=(15,7,0)
GPGPU-Sim PTX: 5500000 instructions simulated : ctaid=(9,0,0) tid=(15,7,0)
GPGPU-Sim PTX: 5600000 instructions simulated : ctaid=(2,0,0) tid=(15,15,0)
GPGPU-Sim uArch: cycles simulated: 29500  inst.: 5604608 (ipc=190.0) sim_rate=431123 (inst/sec) elapsed = 0:0:00:13 / Fri Dec 16 07:19:49 2016
GPGPU-Sim PTX: 5700000 instructions simulated : ctaid=(31,0,0) tid=(15,7,0)
GPGPU-Sim PTX: 5800000 instructions simulated : ctaid=(12,0,0) tid=(15,7,0)
GPGPU-Sim PTX: 5900000 instructions simulated : ctaid=(4,0,0) tid=(15,5,0)
GPGPU-Sim PTX: 6000000 instructions simulated : ctaid=(6,0,0) tid=(15,15,0)
GPGPU-Sim PTX: 6100000 instructions simulated : ctaid=(20,0,0) tid=(15,7,0)
GPGPU-Sim uArch: cycles simulated: 32000  inst.: 6089280 (ipc=190.3) sim_rate=434948 (inst/sec) elapsed = 0:0:00:14 / Fri Dec 16 07:19:50 2016
GPGPU-Sim PTX: 6200000 instructions simulated : ctaid=(8,0,0) tid=(15,11,0)
GPGPU-Sim PTX: 6300000 instructions simulated : ctaid=(32,0,0) tid=(15,3,0)
GPGPU-Sim PTX: 6400000 instructions simulated : ctaid=(14,0,0) tid=(15,15,0)
GPGPU-Sim PTX: 6500000 instructions simulated : ctaid=(0,0,0) tid=(15,1,0)
GPGPU-Sim uArch: cycles simulated: 34000  inst.: 6503680 (ipc=191.3) sim_rate=433578 (inst/sec) elapsed = 0:0:00:15 / Fri Dec 16 07:19:51 2016
GPGPU-Sim PTX: 6600000 instructions simulated : ctaid=(4,0,0) tid=(15,11,0)
GPGPU-Sim PTX: 6700000 instructions simulated : ctaid=(30,0,0) tid=(15,13,0)
GPGPU-Sim PTX: 6800000 instructions simulated : ctaid=(42,0,0) tid=(15,15,0)
GPGPU-Sim PTX: 6900000 instructions simulated : ctaid=(1,0,0) tid=(15,15,0)
GPGPU-Sim PTX: 7000000 instructions simulated : ctaid=(3,0,0) tid=(15,9,0)
GPGPU-Sim uArch: cycles simulated: 36500  inst.: 6989728 (ipc=191.5) sim_rate=436858 (inst/sec) elapsed = 0:0:00:16 / Fri Dec 16 07:19:52 2016
GPGPU-Sim PTX: 7100000 instructions simulated : ctaid=(25,0,0) tid=(15,15,0)
GPGPU-Sim PTX: 7200000 instructions simulated : ctaid=(16,0,0) tid=(15,3,0)
GPGPU-Sim PTX: 7300000 instructions simulated : ctaid=(1,0,0) tid=(15,13,0)
GPGPU-Sim PTX: 7400000 instructions simulated : ctaid=(10,0,0) tid=(15,9,0)
GPGPU-Sim PTX: 7500000 instructions simulated : ctaid=(2,0,0) tid=(15,7,0)
GPGPU-Sim uArch: cycles simulated: 39000  inst.: 7500224 (ipc=192.3) sim_rate=441189 (inst/sec) elapsed = 0:0:00:17 / Fri Dec 16 07:19:53 2016
GPGPU-Sim PTX: 7600000 instructions simulated : ctaid=(12,0,0) tid=(15,1,0)
GPGPU-Sim PTX: 7700000 instructions simulated : ctaid=(29,0,0) tid=(15,13,0)
GPGPU-Sim PTX: 7800000 instructions simulated : ctaid=(5,0,0) tid=(15,9,0)
GPGPU-Sim PTX: 7900000 instructions simulated : ctaid=(28,0,0) tid=(15,15,0)
GPGPU-Sim PTX: 8000000 instructions simulated : ctaid=(2,0,0) tid=(15,7,0)
GPGPU-Sim uArch: cycles simulated: 41500  inst.: 7991296 (ipc=192.6) sim_rate=443960 (inst/sec) elapsed = 0:0:00:18 / Fri Dec 16 07:19:54 2016
GPGPU-Sim PTX: 8100000 instructions simulated : ctaid=(6,0,0) tid=(15,1,0)
GPGPU-Sim PTX: 8200000 instructions simulated : ctaid=(32,0,0) tid=(15,15,0)
GPGPU-Sim PTX: 8300000 instructions simulated : ctaid=(18,0,0) tid=(15,1,0)
GPGPU-Sim PTX: 8400000 instructions simulated : ctaid=(22,0,0) tid=(15,9,0)
GPGPU-Sim PTX: 8500000 instructions simulated : ctaid=(20,0,0) tid=(15,13,0)
GPGPU-Sim uArch: cycles simulated: 44000  inst.: 8507520 (ipc=193.4) sim_rate=447764 (inst/sec) elapsed = 0:0:00:19 / Fri Dec 16 07:19:55 2016
GPGPU-Sim PTX: 8600000 instructions simulated : ctaid=(5,0,0) tid=(15,5,0)
GPGPU-Sim PTX: 8700000 instructions simulated : ctaid=(3,0,0) tid=(15,13,0)
GPGPU-Sim PTX: 8800000 instructions simulated : ctaid=(43,0,0) tid=(15,13,0)
GPGPU-Sim PTX: 8900000 instructions simulated : ctaid=(37,0,0) tid=(15,13,0)
GPGPU-Sim PTX: 9000000 instructions simulated : ctaid=(14,0,0) tid=(15,5,0)
GPGPU-Sim uArch: cycles simulated: 46500  inst.: 9003808 (ipc=193.6) sim_rate=450190 (inst/sec) elapsed = 0:0:00:20 / Fri Dec 16 07:19:56 2016
GPGPU-Sim PTX: 9100000 instructions simulated : ctaid=(12,0,0) tid=(15,1,0)
GPGPU-Sim PTX: 9200000 instructions simulated : ctaid=(41,0,0) tid=(15,3,0)
GPGPU-Sim PTX: 9300000 instructions simulated : ctaid=(15,0,0) tid=(15,3,0)
GPGPU-Sim PTX: 9400000 instructions simulated : ctaid=(13,0,0) tid=(15,7,0)
GPGPU-Sim PTX: 9500000 instructions simulated : ctaid=(13,0,0) tid=(15,11,0)
GPGPU-Sim uArch: cycles simulated: 49000  inst.: 9490272 (ipc=193.7) sim_rate=451917 (inst/sec) elapsed = 0:0:00:21 / Fri Dec 16 07:19:57 2016
GPGPU-Sim PTX: 9600000 instructions simulated : ctaid=(36,0,0) tid=(15,9,0)
GPGPU-Sim PTX: 9700000 instructions simulated : ctaid=(50,0,0) tid=(15,3,0)
GPGPU-Sim PTX: 9800000 instructions simulated : ctaid=(8,0,0) tid=(15,5,0)
GPGPU-Sim PTX: 9900000 instructions simulated : ctaid=(10,0,0) tid=(15,9,0)
GPGPU-Sim PTX: 10000000 instructions simulated : ctaid=(14,0,0) tid=(15,13,0)
GPGPU-Sim uArch: cycles simulated: 51500  inst.: 10003040 (ipc=194.2) sim_rate=454683 (inst/sec) elapsed = 0:0:00:22 / Fri Dec 16 07:19:58 2016
GPGPU-Sim PTX: 10100000 instructions simulated : ctaid=(6,0,0) tid=(15,9,0)
GPGPU-Sim PTX: 10200000 instructions simulated : ctaid=(16,0,0) tid=(15,1,0)
GPGPU-Sim PTX: 10300000 instructions simulated : ctaid=(11,0,0) tid=(15,1,0)
GPGPU-Sim PTX: 10400000 instructions simulated : ctaid=(0,0,0) tid=(15,11,0)
GPGPU-Sim PTX: 10500000 instructions simulated : ctaid=(12,0,0) tid=(15,3,0)
GPGPU-Sim uArch: cycles simulated: 54000  inst.: 10492704 (ipc=194.3) sim_rate=456204 (inst/sec) elapsed = 0:0:00:23 / Fri Dec 16 07:19:59 2016
GPGPU-Sim PTX: 10600000 instructions simulated : ctaid=(13,0,0) tid=(15,5,0)
GPGPU-Sim PTX: 10700000 instructions simulated : ctaid=(14,0,0) tid=(15,15,0)
GPGPU-Sim PTX: 10800000 instructions simulated : ctaid=(31,0,0) tid=(15,9,0)
GPGPU-Sim PTX: 10900000 instructions simulated : ctaid=(29,0,0) tid=(15,5,0)
GPGPU-Sim PTX: 11000000 instructions simulated : ctaid=(13,0,0) tid=(15,5,0)
GPGPU-Sim uArch: cycles simulated: 56500  inst.: 10986560 (ipc=194.5) sim_rate=457773 (inst/sec) elapsed = 0:0:00:24 / Fri Dec 16 07:20:00 2016
GPGPU-Sim PTX: 11100000 instructions simulated : ctaid=(1,0,0) tid=(15,11,0)
GPGPU-Sim PTX: 11200000 instructions simulated : ctaid=(4,0,0) tid=(15,11,0)
GPGPU-Sim PTX: 11300000 instructions simulated : ctaid=(34,0,0) tid=(15,15,0)
GPGPU-Sim PTX: 11400000 instructions simulated : ctaid=(21,0,0) tid=(15,3,0)
GPGPU-Sim PTX: 11500000 instructions simulated : ctaid=(6,0,0) tid=(15,3,0)
GPGPU-Sim PTX: 11600000 instructions simulated : ctaid=(6,0,0) tid=(15,1,0)
GPGPU-Sim uArch: cycles simulated: 59500  inst.: 11580064 (ipc=194.6) sim_rate=463202 (inst/sec) elapsed = 0:0:00:25 / Fri Dec 16 07:20:01 2016
GPGPU-Sim PTX: 11700000 instructions simulated : ctaid=(24,0,0) tid=(15,15,0)
GPGPU-Sim PTX: 11800000 instructions simulated : ctaid=(6,0,0) tid=(15,11,0)
GPGPU-Sim PTX: 11900000 instructions simulated : ctaid=(21,0,0) tid=(15,9,0)
GPGPU-Sim PTX: 12000000 instructions simulated : ctaid=(34,0,0) tid=(15,3,0)
GPGPU-Sim uArch: cycles simulated: 61500  inst.: 12004544 (ipc=195.2) sim_rate=461713 (inst/sec) elapsed = 0:0:00:26 / Fri Dec 16 07:20:02 2016
GPGPU-Sim PTX: 12100000 instructions simulated : ctaid=(16,0,0) tid=(15,5,0)
GPGPU-Sim PTX: 12200000 instructions simulated : ctaid=(2,0,0) tid=(15,5,0)
GPGPU-Sim PTX: 12300000 instructions simulated : ctaid=(11,0,0) tid=(15,15,0)
GPGPU-Sim PTX: 12400000 instructions simulated : ctaid=(10,0,0) tid=(15,9,0)
GPGPU-Sim PTX: 12500000 instructions simulated : ctaid=(13,0,0) tid=(15,15,0)
GPGPU-Sim uArch: cycles simulated: 64000  inst.: 12500672 (ipc=195.3) sim_rate=462987 (inst/sec) elapsed = 0:0:00:27 / Fri Dec 16 07:20:03 2016
GPGPU-Sim PTX: 12600000 instructions simulated : ctaid=(38,0,0) tid=(15,11,0)
GPGPU-Sim PTX: 12700000 instructions simulated : ctaid=(36,0,0) tid=(15,5,0)
GPGPU-Sim PTX: 12800000 instructions simulated : ctaid=(18,0,0) tid=(15,3,0)
GPGPU-Sim PTX: 12900000 instructions simulated : ctaid=(15,0,0) tid=(15,15,0)
GPGPU-Sim PTX: 13000000 instructions simulated : ctaid=(3,0,0) tid=(15,9,0)
GPGPU-Sim uArch: cycles simulated: 66500  inst.: 12995744 (ipc=195.4) sim_rate=464133 (inst/sec) elapsed = 0:0:00:28 / Fri Dec 16 07:20:04 2016
GPGPU-Sim PTX: 13100000 instructions simulated : ctaid=(7,0,0) tid=(15,5,0)
GPGPU-Sim PTX: 13200000 instructions simulated : ctaid=(3,0,0) tid=(15,15,0)
GPGPU-Sim PTX: 13300000 instructions simulated : ctaid=(0,0,0) tid=(15,11,0)
GPGPU-Sim PTX: 13400000 instructions simulated : ctaid=(1,0,0) tid=(15,3,0)
GPGPU-Sim PTX: 13500000 instructions simulated : ctaid=(5,0,0) tid=(15,13,0)
GPGPU-Sim uArch: cycles simulated: 69000  inst.: 13490016 (ipc=195.5) sim_rate=465172 (inst/sec) elapsed = 0:0:00:29 / Fri Dec 16 07:20:05 2016
GPGPU-Sim PTX: 13600000 instructions simulated : ctaid=(42,0,0) tid=(15,7,0)
GPGPU-Sim PTX: 13700000 instructions simulated : ctaid=(54,0,0) tid=(15,13,0)
GPGPU-Sim PTX: 13800000 instructions simulated : ctaid=(30,0,0) tid=(15,7,0)
GPGPU-Sim PTX: 13900000 instructions simulated : ctaid=(34,0,0) tid=(15,13,0)
GPGPU-Sim uArch: cycles simulated: 71000  inst.: 13897792 (ipc=195.7) sim_rate=463259 (inst/sec) elapsed = 0:0:00:30 / Fri Dec 16 07:20:06 2016
GPGPU-Sim PTX: 14000000 instructions simulated : ctaid=(28,0,0) tid=(15,15,0)
GPGPU-Sim PTX: 14100000 instructions simulated : ctaid=(18,0,0) tid=(15,11,0)
GPGPU-Sim PTX: 14200000 instructions simulated : ctaid=(55,0,0) tid=(15,13,0)
GPGPU-Sim PTX: 14300000 instructions simulated : ctaid=(11,0,0) tid=(15,3,0)
GPGPU-Sim PTX: 14400000 instructions simulated : ctaid=(3,0,0) tid=(15,15,0)
GPGPU-Sim uArch: cycles simulated: 73500  inst.: 14381056 (ipc=195.7) sim_rate=463905 (inst/sec) elapsed = 0:0:00:31 / Fri Dec 16 07:20:07 2016
GPGPU-Sim PTX: 14500000 instructions simulated : ctaid=(8,0,0) tid=(15,3,0)
GPGPU-Sim PTX: 14600000 instructions simulated : ctaid=(4,0,0) tid=(15,5,0)
GPGPU-Sim PTX: 14700000 instructions simulated : ctaid=(9,0,0) tid=(15,7,0)
GPGPU-Sim PTX: 14800000 instructions simulated : ctaid=(24,0,0) tid=(15,1,0)
GPGPU-Sim PTX: 14900000 instructions simulated : ctaid=(2,0,0) tid=(15,3,0)
GPGPU-Sim uArch: cycles simulated: 76000  inst.: 14888256 (ipc=195.9) sim_rate=465258 (inst/sec) elapsed = 0:0:00:32 / Fri Dec 16 07:20:08 2016
GPGPU-Sim PTX: 15000000 instructions simulated : ctaid=(8,0,0) tid=(15,1,0)
GPGPU-Sim PTX: 15100000 instructions simulated : ctaid=(4,0,0) tid=(15,7,0)
GPGPU-Sim PTX: 15200000 instructions simulated : ctaid=(2,0,0) tid=(15,1,0)
GPGPU-Sim PTX: 15300000 instructions simulated : ctaid=(40,0,0) tid=(15,7,0)
GPGPU-Sim PTX: 15400000 instructions simulated : ctaid=(38,0,0) tid=(15,15,0)
GPGPU-Sim PTX: 15500000 instructions simulated : ctaid=(23,0,0) tid=(15,9,0)
GPGPU-Sim uArch: cycles simulated: 79000  inst.: 15495328 (ipc=196.1) sim_rate=469555 (inst/sec) elapsed = 0:0:00:33 / Fri Dec 16 07:20:09 2016
GPGPU-Sim PTX: 15600000 instructions simulated : ctaid=(18,0,0) tid=(15,1,0)
GPGPU-Sim PTX: 15700000 instructions simulated : ctaid=(14,0,0) tid=(15,3,0)
GPGPU-Sim PTX: 15800000 instructions simulated : ctaid=(25,0,0) tid=(15,13,0)
GPGPU-Sim PTX: 15900000 instructions simulated : ctaid=(27,0,0) tid=(15,7,0)
GPGPU-Sim uArch: cycles simulated: 81000  inst.: 15886592 (ipc=196.1) sim_rate=467252 (inst/sec) elapsed = 0:0:00:34 / Fri Dec 16 07:20:10 2016
GPGPU-Sim PTX: 16000000 instructions simulated : ctaid=(9,0,0) tid=(15,11,0)
GPGPU-Sim PTX: 16100000 instructions simulated : ctaid=(14,0,0) tid=(15,1,0)
GPGPU-Sim PTX: 16200000 instructions simulated : ctaid=(18,0,0) tid=(15,9,0)
GPGPU-Sim PTX: 16300000 instructions simulated : ctaid=(5,0,0) tid=(15,9,0)
GPGPU-Sim PTX: 16400000 instructions simulated : ctaid=(14,0,0) tid=(15,3,0)
GPGPU-Sim uArch: cycles simulated: 83500  inst.: 16389248 (ipc=196.3) sim_rate=468264 (inst/sec) elapsed = 0:0:00:35 / Fri Dec 16 07:20:11 2016
GPGPU-Sim PTX: 16500000 instructions simulated : ctaid=(4,0,0) tid=(15,11,0)
GPGPU-Sim PTX: 16600000 instructions simulated : ctaid=(20,0,0) tid=(15,13,0)
GPGPU-Sim PTX: 16700000 instructions simulated : ctaid=(36,0,0) tid=(15,15,0)
GPGPU-Sim PTX: 16800000 instructions simulated : ctaid=(2,0,0) tid=(15,11,0)
GPGPU-Sim PTX: 16900000 instructions simulated : ctaid=(11,0,0) tid=(15,7,0)
GPGPU-Sim PTX: 17000000 instructions simulated : ctaid=(12,0,0) tid=(15,9,0)
GPGPU-Sim uArch: cycles simulated: 86500  inst.: 16981984 (ipc=196.3) sim_rate=471721 (inst/sec) elapsed = 0:0:00:36 / Fri Dec 16 07:20:12 2016
GPGPU-Sim PTX: 17100000 instructions simulated : ctaid=(14,0,0) tid=(15,3,0)
GPGPU-Sim PTX: 17200000 instructions simulated : ctaid=(11,0,0) tid=(15,9,0)
GPGPU-Sim PTX: 17300000 instructions simulated : ctaid=(6,0,0) tid=(15,9,0)
GPGPU-Sim PTX: 17400000 instructions simulated : ctaid=(2,0,0) tid=(15,5,0)
GPGPU-Sim PTX: 17500000 instructions simulated : ctaid=(8,0,0) tid=(15,7,0)
GPGPU-Sim uArch: cycles simulated: 89000  inst.: 17486976 (ipc=196.5) sim_rate=472620 (inst/sec) elapsed = 0:0:00:37 / Fri Dec 16 07:20:13 2016
GPGPU-Sim PTX: 17600000 instructions simulated : ctaid=(9,0,0) tid=(15,13,0)
GPGPU-Sim PTX: 17700000 instructions simulated : ctaid=(59,0,0) tid=(15,7,0)
GPGPU-Sim PTX: 17800000 instructions simulated : ctaid=(22,0,0) tid=(15,15,0)
GPGPU-Sim PTX: 17900000 instructions simulated : ctaid=(20,0,0) tid=(15,1,0)
GPGPU-Sim PTX: 18000000 instructions simulated : ctaid=(27,0,0) tid=(15,3,0)
GPGPU-Sim uArch: cycles simulated: 91500  inst.: 17989472 (ipc=196.6) sim_rate=473407 (inst/sec) elapsed = 0:0:00:38 / Fri Dec 16 07:20:14 2016
GPGPU-Sim PTX: 18100000 instructions simulated : ctaid=(14,0,0) tid=(15,15,0)
GPGPU-Sim PTX: 18200000 instructions simulated : ctaid=(28,0,0) tid=(15,1,0)
GPGPU-Sim PTX: 18300000 instructions simulated : ctaid=(13,0,0) tid=(15,15,0)
GPGPU-Sim PTX: 18400000 instructions simulated : ctaid=(18,0,0) tid=(15,5,0)
GPGPU-Sim PTX: 18500000 instructions simulated : ctaid=(34,0,0) tid=(15,1,0)
GPGPU-Sim uArch: cycles simulated: 94000  inst.: 18495200 (ipc=196.8) sim_rate=474235 (inst/sec) elapsed = 0:0:00:39 / Fri Dec 16 07:20:15 2016
GPGPU-Sim PTX: 18600000 instructions simulated : ctaid=(29,0,0) tid=(15,9,0)
GPGPU-Sim PTX: 18700000 instructions simulated : ctaid=(9,0,0) tid=(15,3,0)
GPGPU-Sim PTX: 18800000 instructions simulated : ctaid=(11,0,0) tid=(15,13,0)
GPGPU-Sim PTX: 18900000 instructions simulated : ctaid=(4,0,0) tid=(15,11,0)
GPGPU-Sim PTX: 19000000 instructions simulated : ctaid=(9,0,0) tid=(15,5,0)
GPGPU-Sim uArch: cycles simulated: 96500  inst.: 18995424 (ipc=196.8) sim_rate=474885 (inst/sec) elapsed = 0:0:00:40 / Fri Dec 16 07:20:16 2016
GPGPU-Sim PTX: 19100000 instructions simulated : ctaid=(32,0,0) tid=(15,7,0)
GPGPU-Sim PTX: 19200000 instructions simulated : ctaid=(17,0,0) tid=(15,11,0)
GPGPU-Sim PTX: 19300000 instructions simulated : ctaid=(8,0,0) tid=(15,15,0)
GPGPU-Sim PTX: 19400000 instructions simulated : ctaid=(2,0,0) tid=(15,5,0)
GPGPU-Sim uArch: cycles simulated: 98500  inst.: 19396736 (ipc=196.9) sim_rate=473091 (inst/sec) elapsed = 0:0:00:41 / Fri Dec 16 07:20:17 2016
GPGPU-Sim PTX: 19500000 instructions simulated : ctaid=(12,0,0) tid=(15,15,0)
GPGPU-Sim PTX: 19600000 instructions simulated : ctaid=(9,0,0) tid=(15,15,0)
GPGPU-Sim PTX: 19700000 instructions simulated : ctaid=(10,0,0) tid=(15,9,0)
GPGPU-Sim PTX: 19800000 instructions simulated : ctaid=(3,0,0) tid=(15,3,0)
GPGPU-Sim PTX: 19900000 instructions simulated : ctaid=(9,0,0) tid=(15,9,0)
GPGPU-Sim PTX: 20000000 instructions simulated : ctaid=(9,0,0) tid=(15,7,0)
GPGPU-Sim uArch: cycles simulated: 101500  inst.: 19985920 (ipc=196.9) sim_rate=475855 (inst/sec) elapsed = 0:0:00:42 / Fri Dec 16 07:20:18 2016
GPGPU-Sim PTX: 20100000 instructions simulated : ctaid=(25,0,0) tid=(15,9,0)
GPGPU-Sim PTX: 20200000 instructions simulated : ctaid=(49,0,0) tid=(15,9,0)
GPGPU-Sim PTX: 20300000 instructions simulated : ctaid=(4,0,0) tid=(15,15,0)
GPGPU-Sim PTX: 20400000 instructions simulated : ctaid=(14,0,0) tid=(15,7,0)
GPGPU-Sim uArch: cycles simulated: 103500  inst.: 20399072 (ipc=197.1) sim_rate=474397 (inst/sec) elapsed = 0:0:00:43 / Fri Dec 16 07:20:19 2016
GPGPU-Sim PTX: 20500000 instructions simulated : ctaid=(53,0,0) tid=(15,3,0)
GPGPU-Sim PTX: 20600000 instructions simulated : ctaid=(3,0,0) tid=(15,15,0)
GPGPU-Sim PTX: 20700000 instructions simulated : ctaid=(19,0,0) tid=(15,9,0)
GPGPU-Sim PTX: 20800000 instructions simulated : ctaid=(2,0,0) tid=(15,11,0)
GPGPU-Sim PTX: 20900000 instructions simulated : ctaid=(20,0,0) tid=(15,7,0)
GPGPU-Sim uArch: cycles simulated: 106000  inst.: 20898944 (ipc=197.2) sim_rate=474976 (inst/sec) elapsed = 0:0:00:44 / Fri Dec 16 07:20:20 2016
GPGPU-Sim PTX: 21000000 instructions simulated : ctaid=(7,0,0) tid=(15,5,0)
GPGPU-Sim PTX: 21100000 instructions simulated : ctaid=(24,0,0) tid=(15,15,0)
GPGPU-Sim PTX: 21200000 instructions simulated : ctaid=(5,0,0) tid=(15,5,0)
GPGPU-Sim PTX: 21300000 instructions simulated : ctaid=(1,0,0) tid=(15,15,0)
GPGPU-Sim PTX: 21400000 instructions simulated : ctaid=(23,0,0) tid=(15,3,0)
GPGPU-Sim uArch: cycles simulated: 108500  inst.: 21408064 (ipc=197.3) sim_rate=475734 (inst/sec) elapsed = 0:0:00:45 / Fri Dec 16 07:20:21 2016
GPGPU-Sim PTX: 21500000 instructions simulated : ctaid=(16,0,0) tid=(15,13,0)
GPGPU-Sim PTX: 21600000 instructions simulated : ctaid=(12,0,0) tid=(15,1,0)
GPGPU-Sim PTX: 21700000 instructions simulated : ctaid=(23,0,0) tid=(15,1,0)
GPGPU-Sim PTX: 21800000 instructions simulated : ctaid=(8,0,0) tid=(15,15,0)
GPGPU-Sim uArch: cycles simulated: 110500  inst.: 21807680 (ipc=197.4) sim_rate=474080 (inst/sec) elapsed = 0:0:00:46 / Fri Dec 16 07:20:22 2016
GPGPU-Sim PTX: 21900000 instructions simulated : ctaid=(33,0,0) tid=(15,11,0)
GPGPU-Sim PTX: 22000000 instructions simulated : ctaid=(20,0,0) tid=(15,3,0)
GPGPU-Sim PTX: 22100000 instructions simulated : ctaid=(27,0,0) tid=(15,13,0)
GPGPU-Sim PTX: 22200000 instructions simulated : ctaid=(15,0,0) tid=(15,11,0)
GPGPU-Sim PTX: 22300000 instructions simulated : ctaid=(26,0,0) tid=(15,3,0)
GPGPU-Sim uArch: cycles simulated: 113000  inst.: 22323840 (ipc=197.6) sim_rate=474975 (inst/sec) elapsed = 0:0:00:47 / Fri Dec 16 07:20:23 2016
GPGPU-Sim PTX: 22400000 instructions simulated : ctaid=(21,0,0) tid=(15,5,0)
GPGPU-Sim PTX: 22500000 instructions simulated : ctaid=(5,0,0) tid=(15,7,0)
GPGPU-Sim PTX: 22600000 instructions simulated : ctaid=(11,0,0) tid=(15,7,0)
GPGPU-Sim PTX: 22700000 instructions simulated : ctaid=(17,0,0) tid=(15,15,0)
GPGPU-Sim PTX: 22800000 instructions simulated : ctaid=(7,0,0) tid=(15,5,0)
GPGPU-Sim uArch: cycles simulated: 115500  inst.: 22805440 (ipc=197.4) sim_rate=475113 (inst/sec) elapsed = 0:0:00:48 / Fri Dec 16 07:20:24 2016
GPGPU-Sim PTX: 22900000 instructions simulated : ctaid=(25,0,0) tid=(15,1,0)
GPGPU-Sim PTX: 23000000 instructions simulated : ctaid=(32,0,0) tid=(15,11,0)
GPGPU-Sim PTX: 23100000 instructions simulated : ctaid=(8,0,0) tid=(15,15,0)
GPGPU-Sim PTX: 23200000 instructions simulated : ctaid=(14,0,0) tid=(15,13,0)
GPGPU-Sim PTX: 23300000 instructions simulated : ctaid=(3,0,0) tid=(15,15,0)
GPGPU-Sim uArch: cycles simulated: 118000  inst.: 23298944 (ipc=197.4) sim_rate=475488 (inst/sec) elapsed = 0:0:00:49 / Fri Dec 16 07:20:25 2016
GPGPU-Sim PTX: 23400000 instructions simulated : ctaid=(25,0,0) tid=(15,11,0)
GPGPU-Sim PTX: 23500000 instructions simulated : ctaid=(17,0,0) tid=(15,3,0)
GPGPU-Sim PTX: 23600000 instructions simulated : ctaid=(5,0,0) tid=(15,13,0)
GPGPU-Sim PTX: 23700000 instructions simulated : ctaid=(8,0,0) tid=(15,7,0)
GPGPU-Sim uArch: cycles simulated: 120000  inst.: 23712224 (ipc=197.6) sim_rate=474244 (inst/sec) elapsed = 0:0:00:50 / Fri Dec 16 07:20:26 2016
GPGPU-Sim PTX: 23800000 instructions simulated : ctaid=(21,0,0) tid=(15,9,0)
GPGPU-Sim PTX: 23900000 instructions simulated : ctaid=(2,0,0) tid=(15,11,0)
GPGPU-Sim PTX: 24000000 instructions simulated : ctaid=(3,0,0) tid=(15,13,0)
GPGPU-Sim PTX: 24100000 instructions simulated : ctaid=(30,0,0) tid=(15,1,0)
GPGPU-Sim PTX: 24200000 instructions simulated : ctaid=(0,0,0) tid=(15,9,0)
GPGPU-Sim uArch: cycles simulated: 122500  inst.: 24212640 (ipc=197.7) sim_rate=474757 (inst/sec) elapsed = 0:0:00:51 / Fri Dec 16 07:20:27 2016
GPGPU-Sim PTX: 24300000 instructions simulated : ctaid=(22,0,0) tid=(15,7,0)
GPGPU-Sim PTX: 24400000 instructions simulated : ctaid=(35,0,0) tid=(15,3,0)
GPGPU-Sim PTX: 24500000 instructions simulated : ctaid=(42,0,0) tid=(15,11,0)
GPGPU-Sim PTX: 24600000 instructions simulated : ctaid=(13,0,0) tid=(15,7,0)
GPGPU-Sim PTX: 24700000 instructions simulated : ctaid=(9,0,0) tid=(15,11,0)
GPGPU-Sim uArch: cycles simulated: 125000  inst.: 24709472 (ipc=197.7) sim_rate=475182 (inst/sec) elapsed = 0:0:00:52 / Fri Dec 16 07:20:28 2016
GPGPU-Sim PTX: 24800000 instructions simulated : ctaid=(0,0,0) tid=(15,1,0)
GPGPU-Sim PTX: 24900000 instructions simulated : ctaid=(15,0,0) tid=(15,7,0)
GPGPU-Sim PTX: 25000000 instructions simulated : ctaid=(0,0,0) tid=(15,9,0)
GPGPU-Sim PTX: 25100000 instructions simulated : ctaid=(8,0,0) tid=(15,15,0)
GPGPU-Sim PTX: 25200000 instructions simulated : ctaid=(9,0,0) tid=(15,5,0)
GPGPU-Sim uArch: cycles simulated: 127500  inst.: 25215808 (ipc=197.8) sim_rate=475769 (inst/sec) elapsed = 0:0:00:53 / Fri Dec 16 07:20:29 2016
GPGPU-Sim PTX: 25300000 instructions simulated : ctaid=(25,0,0) tid=(15,1,0)
GPGPU-Sim PTX: 25400000 instructions simulated : ctaid=(0,0,0) tid=(15,5,0)
GPGPU-Sim PTX: 25500000 instructions simulated : ctaid=(9,0,0) tid=(15,5,0)
GPGPU-Sim PTX: 25600000 instructions simulated : ctaid=(32,0,0) tid=(15,1,0)
GPGPU-Sim PTX: 25700000 instructions simulated : ctaid=(6,0,0) tid=(15,5,0)
GPGPU-Sim uArch: cycles simulated: 130000  inst.: 25721536 (ipc=197.9) sim_rate=476324 (inst/sec) elapsed = 0:0:00:54 / Fri Dec 16 07:20:30 2016
GPGPU-Sim PTX: 25800000 instructions simulated : ctaid=(39,0,0) tid=(15,9,0)
GPGPU-Sim PTX: 25900000 instructions simulated : ctaid=(24,0,0) tid=(15,13,0)
GPGPU-Sim PTX: 26000000 instructions simulated : ctaid=(18,0,0) tid=(15,7,0)
GPGPU-Sim PTX: 26100000 instructions simulated : ctaid=(3,0,0) tid=(15,13,0)
GPGPU-Sim uArch: cycles simulated: 132000  inst.: 26126656 (ipc=197.9) sim_rate=475030 (inst/sec) elapsed = 0:0:00:55 / Fri Dec 16 07:20:31 2016
GPGPU-Sim PTX: 26200000 instructions simulated : ctaid=(2,0,0) tid=(15,11,0)
GPGPU-Sim PTX: 26300000 instructions simulated : ctaid=(27,0,0) tid=(15,9,0)
GPGPU-Sim PTX: 26400000 instructions simulated : ctaid=(28,0,0) tid=(15,9,0)
GPGPU-Sim PTX: 26500000 instructions simulated : ctaid=(13,0,0) tid=(15,9,0)
GPGPU-Sim PTX: 26600000 instructions simulated : ctaid=(7,0,0) tid=(15,13,0)
GPGPU-Sim uArch: cycles simulated: 134500  inst.: 26633088 (ipc=198.0) sim_rate=475590 (inst/sec) elapsed = 0:0:00:56 / Fri Dec 16 07:20:32 2016
GPGPU-Sim PTX: 26700000 instructions simulated : ctaid=(1,0,0) tid=(15,11,0)
GPGPU-Sim PTX: 26800000 instructions simulated : ctaid=(4,0,0) tid=(15,15,0)
GPGPU-Sim PTX: 26900000 instructions simulated : ctaid=(5,0,0) tid=(15,5,0)
GPGPU-Sim PTX: 27000000 instructions simulated : ctaid=(20,0,0) tid=(15,7,0)
GPGPU-Sim PTX: 27100000 instructions simulated : ctaid=(4,0,0) tid=(15,9,0)
GPGPU-Sim uArch: cycles simulated: 137000  inst.: 27132032 (ipc=198.0) sim_rate=476000 (inst/sec) elapsed = 0:0:00:57 / Fri Dec 16 07:20:33 2016
GPGPU-Sim PTX: 27200000 instructions simulated : ctaid=(18,0,0) tid=(15,13,0)
GPGPU-Sim PTX: 27300000 instructions simulated : ctaid=(8,0,0) tid=(15,9,0)
GPGPU-Sim PTX: 27400000 instructions simulated : ctaid=(34,0,0) tid=(15,7,0)
GPGPU-Sim PTX: 27500000 instructions simulated : ctaid=(3,0,0) tid=(15,9,0)
GPGPU-Sim PTX: 27600000 instructions simulated : ctaid=(11,0,0) tid=(15,1,0)
GPGPU-Sim uArch: cycles simulated: 139500  inst.: 27628864 (ipc=198.1) sim_rate=476359 (inst/sec) elapsed = 0:0:00:58 / Fri Dec 16 07:20:34 2016
GPGPU-Sim PTX: 27700000 instructions simulated : ctaid=(19,0,0) tid=(15,9,0)
GPGPU-Sim PTX: 27800000 instructions simulated : ctaid=(0,0,0) tid=(15,7,0)
GPGPU-Sim PTX: 27900000 instructions simulated : ctaid=(27,0,0) tid=(15,11,0)
GPGPU-Sim PTX: 28000000 instructions simulated : ctaid=(6,0,0) tid=(15,11,0)
GPGPU-Sim PTX: 28100000 instructions simulated : ctaid=(11,0,0) tid=(15,7,0)
GPGPU-Sim uArch: cycles simulated: 142000  inst.: 28146368 (ipc=198.2) sim_rate=477057 (inst/sec) elapsed = 0:0:00:59 / Fri Dec 16 07:20:35 2016
GPGPU-Sim PTX: 28200000 instructions simulated : ctaid=(32,0,0) tid=(15,7,0)
GPGPU-Sim PTX: 28300000 instructions simulated : ctaid=(28,0,0) tid=(15,5,0)
GPGPU-Sim PTX: 28400000 instructions simulated : ctaid=(25,0,0) tid=(15,9,0)
GPGPU-Sim PTX: 28500000 instructions simulated : ctaid=(9,0,0) tid=(15,5,0)
GPGPU-Sim PTX: 28600000 instructions simulated : ctaid=(3,0,0) tid=(15,1,0)
GPGPU-Sim uArch: cycles simulated: 144500  inst.: 28640256 (ipc=198.2) sim_rate=477337 (inst/sec) elapsed = 0:0:01:00 / Fri Dec 16 07:20:36 2016
GPGPU-Sim PTX: 28700000 instructions simulated : ctaid=(4,0,0) tid=(15,3,0)
GPGPU-Sim PTX: 28800000 instructions simulated : ctaid=(39,0,0) tid=(15,7,0)
GPGPU-Sim PTX: 28900000 instructions simulated : ctaid=(4,0,0) tid=(15,5,0)
GPGPU-Sim PTX: 29000000 instructions simulated : ctaid=(12,0,0) tid=(15,3,0)
GPGPU-Sim PTX: 29100000 instructions simulated : ctaid=(13,0,0) tid=(15,9,0)
GPGPU-Sim uArch: cycles simulated: 147000  inst.: 29140416 (ipc=198.2) sim_rate=477711 (inst/sec) elapsed = 0:0:01:01 / Fri Dec 16 07:20:37 2016
GPGPU-Sim PTX: 29200000 instructions simulated : ctaid=(40,0,0) tid=(15,7,0)
GPGPU-Sim uArch: Shader 10 finished CTA #0 (147508,0), 3 CTAs running
GPGPU-Sim uArch: core: 10, cta: 0 initialized @(147509,0)
GPGPU-Sim PTX: 29300000 instructions simulated : ctaid=(41,0,0) tid=(15,9,0)
GPGPU-Sim uArch: Shader 13 finished CTA #0 (147665,0), 3 CTAs running
GPGPU-Sim uArch: core: 13, cta: 0 initialized @(147666,0)
GPGPU-Sim uArch: Shader 0 finished CTA #0 (147904,0), 3 CTAs running
GPGPU-Sim uArch: core:  0, cta: 0 initialized @(147905,0)
GPGPU-Sim PTX: 29400000 instructions simulated : ctaid=(11,0,0) tid=(15,3,0)
GPGPU-Sim PTX: 29500000 instructions simulated : ctaid=(26,0,0) tid=(15,15,0)
GPGPU-Sim uArch: cycles simulated: 149000  inst.: 29555136 (ipc=198.4) sim_rate=476695 (inst/sec) elapsed = 0:0:01:02 / Fri Dec 16 07:20:38 2016
GPGPU-Sim PTX: 29600000 instructions simulated : ctaid=(0,0,0) tid=(15,13,0)
GPGPU-Sim uArch: Shader 14 finished CTA #0 (149139,0), 3 CTAs running
GPGPU-Sim uArch: core: 14, cta: 0 initialized @(149140,0)
GPGPU-Sim uArch: Shader 9 finished CTA #0 (149207,0), 3 CTAs running
GPGPU-Sim uArch: core:  9, cta: 0 initialized @(149208,0)
GPGPU-Sim PTX: 29700000 instructions simulated : ctaid=(10,0,0) tid=(15,3,0)
GPGPU-Sim PTX: 29800000 instructions simulated : ctaid=(32,0,0) tid=(15,3,0)
GPGPU-Sim uArch: Shader 11 finished CTA #0 (150037,0), 3 CTAs running
GPGPU-Sim uArch: core: 11, cta: 0 initialized @(150038,0)
GPGPU-Sim uArch: Shader 8 finished CTA #0 (150379,0), 3 CTAs running
GPGPU-Sim uArch: core:  8, cta: 0 initialized @(150380,0)
GPGPU-Sim PTX: 29900000 instructions simulated : ctaid=(44,0,0) tid=(15,15,0)
GPGPU-Sim uArch: Shader 7 finished CTA #0 (150416,0), 3 CTAs running
GPGPU-Sim uArch: core:  7, cta: 0 initialized @(150417,0)
GPGPU-Sim uArch: Shader 3 finished CTA #0 (150484,0), 3 CTAs running
GPGPU-Sim uArch: core:  3, cta: 0 initialized @(150485,0)
GPGPU-Sim uArch: Shader 2 finished CTA #0 (150622,0), 3 CTAs running
GPGPU-Sim uArch: core:  2, cta: 0 initialized @(150623,0)
GPGPU-Sim uArch: Shader 4 finished CTA #0 (150724,0), 3 CTAs running
GPGPU-Sim uArch: core:  4, cta: 0 initialized @(150725,0)
GPGPU-Sim uArch: Shader 12 finished CTA #0 (150777,0), 3 CTAs running
GPGPU-Sim uArch: core: 12, cta: 0 initialized @(150778,0)
GPGPU-Sim PTX: 30000000 instructions simulated : ctaid=(2,1,0) tid=(15,9,0)
GPGPU-Sim uArch: cycles simulated: 151000  inst.: 30028576 (ipc=198.9) sim_rate=476644 (inst/sec) elapsed = 0:0:01:03 / Fri Dec 16 07:20:39 2016
GPGPU-Sim PTX: 30100000 instructions simulated : ctaid=(22,0,0) tid=(15,7,0)
GPGPU-Sim PTX: 30200000 instructions simulated : ctaid=(39,0,0) tid=(15,1,0)
GPGPU-Sim PTX: 30300000 instructions simulated : ctaid=(38,0,0) tid=(15,5,0)
GPGPU-Sim PTX: 30400000 instructions simulated : ctaid=(29,0,0) tid=(15,7,0)
GPGPU-Sim uArch: Shader 5 finished CTA #0 (152778,0), 3 CTAs running
GPGPU-Sim uArch: core:  5, cta: 0 initialized @(152779,0)
GPGPU-Sim PTX: 30500000 instructions simulated : ctaid=(20,0,0) tid=(15,5,0)
GPGPU-Sim uArch: Shader 6 finished CTA #0 (153130,0), 3 CTAs running
GPGPU-Sim uArch: core:  6, cta: 0 initialized @(153131,0)
GPGPU-Sim uArch: cycles simulated: 153500  inst.: 30566688 (ipc=199.1) sim_rate=477604 (inst/sec) elapsed = 0:0:01:04 / Fri Dec 16 07:20:40 2016
GPGPU-Sim PTX: 30600000 instructions simulated : ctaid=(38,0,0) tid=(15,15,0)
GPGPU-Sim PTX: 30700000 instructions simulated : ctaid=(29,0,0) tid=(15,15,0)
GPGPU-Sim PTX: 30800000 instructions simulated : ctaid=(19,0,0) tid=(15,1,0)
GPGPU-Sim PTX: 30900000 instructions simulated : ctaid=(20,0,0) tid=(15,11,0)
GPGPU-Sim uArch: Shader 1 finished CTA #0 (155180,0), 3 CTAs running
GPGPU-Sim uArch: core:  1, cta: 0 initialized @(155181,0)
GPGPU-Sim PTX: 31000000 instructions simulated : ctaid=(39,0,0) tid=(15,11,0)
GPGPU-Sim uArch: cycles simulated: 155500  inst.: 30978784 (ipc=199.2) sim_rate=476596 (inst/sec) elapsed = 0:0:01:05 / Fri Dec 16 07:20:41 2016
GPGPU-Sim PTX: 31100000 instructions simulated : ctaid=(43,0,0) tid=(15,9,0)
GPGPU-Sim PTX: 31200000 instructions simulated : ctaid=(18,0,0) tid=(15,7,0)
GPGPU-Sim PTX: 31300000 instructions simulated : ctaid=(51,0,0) tid=(15,7,0)
GPGPU-Sim PTX: 31400000 instructions simulated : ctaid=(36,0,0) tid=(15,5,0)
GPGPU-Sim uArch: cycles simulated: 157500  inst.: 31375904 (ipc=199.2) sim_rate=475392 (inst/sec) elapsed = 0:0:01:06 / Fri Dec 16 07:20:42 2016
GPGPU-Sim PTX: 31500000 instructions simulated : ctaid=(24,0,0) tid=(15,15,0)
GPGPU-Sim PTX: 31600000 instructions simulated : ctaid=(15,0,0) tid=(15,1,0)
GPGPU-Sim PTX: 31700000 instructions simulated : ctaid=(31,0,0) tid=(15,9,0)
GPGPU-Sim PTX: 31800000 instructions simulated : ctaid=(20,0,0) tid=(15,11,0)
GPGPU-Sim uArch: cycles simulated: 160000  inst.: 31867488 (ipc=199.2) sim_rate=475634 (inst/sec) elapsed = 0:0:01:07 / Fri Dec 16 07:20:43 2016
GPGPU-Sim PTX: 31900000 instructions simulated : ctaid=(26,0,0) tid=(15,15,0)
GPGPU-Sim PTX: 32000000 instructions simulated : ctaid=(38,0,0) tid=(15,5,0)
GPGPU-Sim PTX: 32100000 instructions simulated : ctaid=(18,0,0) tid=(15,7,0)
GPGPU-Sim PTX: 32200000 instructions simulated : ctaid=(35,0,0) tid=(15,11,0)
GPGPU-Sim PTX: 32300000 instructions simulated : ctaid=(24,0,0) tid=(15,9,0)
GPGPU-Sim uArch: cycles simulated: 162500  inst.: 32365984 (ipc=199.2) sim_rate=475970 (inst/sec) elapsed = 0:0:01:08 / Fri Dec 16 07:20:44 2016
GPGPU-Sim PTX: 32400000 instructions simulated : ctaid=(56,0,0) tid=(15,3,0)
GPGPU-Sim PTX: 32500000 instructions simulated : ctaid=(22,0,0) tid=(15,3,0)
GPGPU-Sim PTX: 32600000 instructions simulated : ctaid=(37,0,0) tid=(15,5,0)
GPGPU-Sim PTX: 32700000 instructions simulated : ctaid=(20,0,0) tid=(15,1,0)
GPGPU-Sim uArch: cycles simulated: 164500  inst.: 32767616 (ipc=199.2) sim_rate=474892 (inst/sec) elapsed = 0:0:01:09 / Fri Dec 16 07:20:45 2016
GPGPU-Sim PTX: 32800000 instructions simulated : ctaid=(55,0,0) tid=(15,3,0)
GPGPU-Sim PTX: 32900000 instructions simulated : ctaid=(26,0,0) tid=(15,9,0)
GPGPU-Sim PTX: 33000000 instructions simulated : ctaid=(31,0,0) tid=(15,15,0)
GPGPU-Sim PTX: 33100000 instructions simulated : ctaid=(17,0,0) tid=(15,1,0)
GPGPU-Sim PTX: 33200000 instructions simulated : ctaid=(51,0,0) tid=(15,7,0)
GPGPU-Sim uArch: cycles simulated: 167000  inst.: 33268448 (ipc=199.2) sim_rate=475263 (inst/sec) elapsed = 0:0:01:10 / Fri Dec 16 07:20:46 2016
GPGPU-Sim PTX: 33300000 instructions simulated : ctaid=(19,0,0) tid=(15,9,0)
GPGPU-Sim PTX: 33400000 instructions simulated : ctaid=(18,0,0) tid=(15,7,0)
GPGPU-Sim PTX: 33500000 instructions simulated : ctaid=(23,0,0) tid=(15,13,0)
GPGPU-Sim PTX: 33600000 instructions simulated : ctaid=(25,0,0) tid=(15,15,0)
GPGPU-Sim PTX: 33700000 instructions simulated : ctaid=(34,0,0) tid=(15,7,0)
GPGPU-Sim uArch: cycles simulated: 169500  inst.: 33769088 (ipc=199.2) sim_rate=475620 (inst/sec) elapsed = 0:0:01:11 / Fri Dec 16 07:20:47 2016
GPGPU-Sim PTX: 33800000 instructions simulated : ctaid=(36,0,0) tid=(15,7,0)
GPGPU-Sim PTX: 33900000 instructions simulated : ctaid=(22,0,0) tid=(15,9,0)
GPGPU-Sim PTX: 34000000 instructions simulated : ctaid=(16,0,0) tid=(15,5,0)
GPGPU-Sim PTX: 34100000 instructions simulated : ctaid=(17,0,0) tid=(15,3,0)
GPGPU-Sim PTX: 34200000 instructions simulated : ctaid=(45,0,0) tid=(15,11,0)
GPGPU-Sim PTX: 34300000 instructions simulated : ctaid=(25,0,0) tid=(15,5,0)
GPGPU-Sim uArch: cycles simulated: 172000  inst.: 34272640 (ipc=199.3) sim_rate=476008 (inst/sec) elapsed = 0:0:01:12 / Fri Dec 16 07:20:48 2016
GPGPU-Sim PTX: 34400000 instructions simulated : ctaid=(37,0,0) tid=(15,11,0)
GPGPU-Sim PTX: 34500000 instructions simulated : ctaid=(25,0,0) tid=(15,15,0)
GPGPU-Sim PTX: 34600000 instructions simulated : ctaid=(21,0,0) tid=(15,13,0)
GPGPU-Sim uArch: cycles simulated: 174000  inst.: 34671360 (ipc=199.3) sim_rate=474950 (inst/sec) elapsed = 0:0:01:13 / Fri Dec 16 07:20:49 2016
GPGPU-Sim PTX: 34700000 instructions simulated : ctaid=(31,0,0) tid=(15,3,0)
GPGPU-Sim PTX: 34800000 instructions simulated : ctaid=(16,0,0) tid=(15,13,0)
GPGPU-Sim PTX: 34900000 instructions simulated : ctaid=(16,0,0) tid=(15,3,0)
GPGPU-Sim PTX: 35000000 instructions simulated : ctaid=(18,0,0) tid=(15,13,0)
GPGPU-Sim PTX: 35100000 instructions simulated : ctaid=(33,0,0) tid=(15,7,0)
GPGPU-Sim PTX: 35200000 instructions simulated : ctaid=(51,0,0) tid=(15,13,0)
GPGPU-Sim uArch: cycles simulated: 176500  inst.: 35194496 (ipc=199.4) sim_rate=475601 (inst/sec) elapsed = 0:0:01:14 / Fri Dec 16 07:20:50 2016
GPGPU-Sim PTX: 35300000 instructions simulated : ctaid=(53,0,0) tid=(15,9,0)
GPGPU-Sim PTX: 35400000 instructions simulated : ctaid=(15,0,0) tid=(15,1,0)
GPGPU-Sim PTX: 35500000 instructions simulated : ctaid=(17,0,0) tid=(15,9,0)
GPGPU-Sim PTX: 35600000 instructions simulated : ctaid=(60,0,0) tid=(15,5,0)
GPGPU-Sim uArch: cycles simulated: 178500  inst.: 35593280 (ipc=199.4) sim_rate=474577 (inst/sec) elapsed = 0:0:01:15 / Fri Dec 16 07:20:51 2016
GPGPU-Sim PTX: 35700000 instructions simulated : ctaid=(56,0,0) tid=(15,5,0)
GPGPU-Sim PTX: 35800000 instructions simulated : ctaid=(20,0,0) tid=(15,11,0)
GPGPU-Sim PTX: 35900000 instructions simulated : ctaid=(29,0,0) tid=(15,7,0)
GPGPU-Sim PTX: 36000000 instructions simulated : ctaid=(15,0,0) tid=(15,3,0)
GPGPU-Sim PTX: 36100000 instructions simulated : ctaid=(10,1,0) tid=(15,13,0)
GPGPU-Sim uArch: cycles simulated: 181000  inst.: 36090208 (ipc=199.4) sim_rate=474871 (inst/sec) elapsed = 0:0:01:16 / Fri Dec 16 07:20:52 2016
GPGPU-Sim PTX: 36200000 instructions simulated : ctaid=(59,0,0) tid=(15,15,0)
GPGPU-Sim PTX: 36300000 instructions simulated : ctaid=(36,0,0) tid=(15,1,0)
GPGPU-Sim PTX: 36400000 instructions simulated : ctaid=(15,0,0) tid=(15,15,0)
GPGPU-Sim PTX: 36500000 instructions simulated : ctaid=(41,0,0) tid=(15,15,0)
GPGPU-Sim uArch: cycles simulated: 183000  inst.: 36480800 (ipc=199.3) sim_rate=473776 (inst/sec) elapsed = 0:0:01:17 / Fri Dec 16 07:20:53 2016
GPGPU-Sim PTX: 36600000 instructions simulated : ctaid=(39,0,0) tid=(15,5,0)
GPGPU-Sim PTX: 36700000 instructions simulated : ctaid=(37,0,0) tid=(15,3,0)
GPGPU-Sim PTX: 36800000 instructions simulated : ctaid=(21,0,0) tid=(15,5,0)
GPGPU-Sim PTX: 36900000 instructions simulated : ctaid=(35,0,0) tid=(15,5,0)
GPGPU-Sim PTX: 37000000 instructions simulated : ctaid=(22,0,0) tid=(15,3,0)
GPGPU-Sim uArch: cycles simulated: 185500  inst.: 36983712 (ipc=199.4) sim_rate=474150 (inst/sec) elapsed = 0:0:01:18 / Fri Dec 16 07:20:54 2016
GPGPU-Sim PTX: 37100000 instructions simulated : ctaid=(18,0,0) tid=(15,9,0)
GPGPU-Sim PTX: 37200000 instructions simulated : ctaid=(24,0,0) tid=(15,7,0)
GPGPU-Sim PTX: 37300000 instructions simulated : ctaid=(24,0,0) tid=(15,9,0)
GPGPU-Sim PTX: 37400000 instructions simulated : ctaid=(37,0,0) tid=(15,7,0)
GPGPU-Sim PTX: 37500000 instructions simulated : ctaid=(5,1,0) tid=(15,11,0)
GPGPU-Sim uArch: cycles simulated: 188000  inst.: 37474816 (ipc=199.3) sim_rate=474364 (inst/sec) elapsed = 0:0:01:19 / Fri Dec 16 07:20:55 2016
GPGPU-Sim PTX: 37600000 instructions simulated : ctaid=(52,0,0) tid=(15,13,0)
GPGPU-Sim PTX: 37700000 instructions simulated : ctaid=(16,0,0) tid=(15,7,0)
GPGPU-Sim PTX: 37800000 instructions simulated : ctaid=(44,0,0) tid=(15,3,0)
GPGPU-Sim PTX: 37900000 instructions simulated : ctaid=(42,0,0) tid=(15,1,0)
GPGPU-Sim uArch: cycles simulated: 190000  inst.: 37883808 (ipc=199.4) sim_rate=473547 (inst/sec) elapsed = 0:0:01:20 / Fri Dec 16 07:20:56 2016
GPGPU-Sim PTX: 38000000 instructions simulated : ctaid=(20,0,0) tid=(15,11,0)
GPGPU-Sim PTX: 38100000 instructions simulated : ctaid=(58,0,0) tid=(15,7,0)
GPGPU-Sim PTX: 38200000 instructions simulated : ctaid=(16,0,0) tid=(15,9,0)
GPGPU-Sim PTX: 38300000 instructions simulated : ctaid=(16,0,0) tid=(15,15,0)
GPGPU-Sim PTX: 38400000 instructions simulated : ctaid=(29,0,0) tid=(15,1,0)
GPGPU-Sim uArch: cycles simulated: 192500  inst.: 38382016 (ipc=199.4) sim_rate=473852 (inst/sec) elapsed = 0:0:01:21 / Fri Dec 16 07:20:57 2016
GPGPU-Sim PTX: 38500000 instructions simulated : ctaid=(28,0,0) tid=(15,11,0)
GPGPU-Sim PTX: 38600000 instructions simulated : ctaid=(21,0,0) tid=(15,1,0)
GPGPU-Sim PTX: 38700000 instructions simulated : ctaid=(47,0,0) tid=(15,5,0)
GPGPU-Sim PTX: 38800000 instructions simulated : ctaid=(41,0,0) tid=(15,11,0)
GPGPU-Sim uArch: cycles simulated: 194500  inst.: 38777952 (ipc=199.4) sim_rate=472901 (inst/sec) elapsed = 0:0:01:22 / Fri Dec 16 07:20:58 2016
GPGPU-Sim PTX: 38900000 instructions simulated : ctaid=(33,0,0) tid=(15,13,0)
GPGPU-Sim PTX: 39000000 instructions simulated : ctaid=(27,0,0) tid=(15,3,0)
GPGPU-Sim PTX: 39100000 instructions simulated : ctaid=(42,0,0) tid=(15,3,0)
GPGPU-Sim PTX: 39200000 instructions simulated : ctaid=(23,0,0) tid=(15,15,0)
GPGPU-Sim PTX: 39300000 instructions simulated : ctaid=(27,0,0) tid=(15,1,0)
GPGPU-Sim uArch: cycles simulated: 197000  inst.: 39277024 (ipc=199.4) sim_rate=473217 (inst/sec) elapsed = 0:0:01:23 / Fri Dec 16 07:20:59 2016
GPGPU-Sim PTX: 39400000 instructions simulated : ctaid=(26,0,0) tid=(15,9,0)
GPGPU-Sim PTX: 39500000 instructions simulated : ctaid=(26,0,0) tid=(15,7,0)
GPGPU-Sim PTX: 39600000 instructions simulated : ctaid=(30,0,0) tid=(15,11,0)
GPGPU-Sim PTX: 39700000 instructions simulated : ctaid=(21,0,0) tid=(15,9,0)
GPGPU-Sim uArch: cycles simulated: 199000  inst.: 39690688 (ipc=199.5) sim_rate=472508 (inst/sec) elapsed = 0:0:01:24 / Fri Dec 16 07:21:00 2016
GPGPU-Sim PTX: 39800000 instructions simulated : ctaid=(58,0,0) tid=(15,7,0)
GPGPU-Sim PTX: 39900000 instructions simulated : ctaid=(24,0,0) tid=(15,15,0)
GPGPU-Sim PTX: 40000000 instructions simulated : ctaid=(20,0,0) tid=(15,11,0)
GPGPU-Sim PTX: 40100000 instructions simulated : ctaid=(28,0,0) tid=(15,13,0)
GPGPU-Sim uArch: cycles simulated: 201000  inst.: 40086144 (ipc=199.4) sim_rate=471601 (inst/sec) elapsed = 0:0:01:25 / Fri Dec 16 07:21:01 2016
GPGPU-Sim PTX: 40200000 instructions simulated : ctaid=(34,0,0) tid=(15,9,0)
GPGPU-Sim PTX: 40300000 instructions simulated : ctaid=(16,0,0) tid=(15,7,0)
GPGPU-Sim PTX: 40400000 instructions simulated : ctaid=(17,0,0) tid=(15,11,0)
GPGPU-Sim PTX: 40500000 instructions simulated : ctaid=(15,0,0) tid=(15,15,0)
GPGPU-Sim PTX: 40600000 instructions simulated : ctaid=(24,0,0) tid=(15,13,0)
GPGPU-Sim uArch: cycles simulated: 203500  inst.: 40581088 (ipc=199.4) sim_rate=471873 (inst/sec) elapsed = 0:0:01:26 / Fri Dec 16 07:21:02 2016
GPGPU-Sim PTX: 40700000 instructions simulated : ctaid=(22,0,0) tid=(15,13,0)
GPGPU-Sim PTX: 40800000 instructions simulated : ctaid=(29,0,0) tid=(15,15,0)
GPGPU-Sim PTX: 40900000 instructions simulated : ctaid=(17,0,0) tid=(15,11,0)
GPGPU-Sim PTX: 41000000 instructions simulated : ctaid=(45,0,0) tid=(15,1,0)
GPGPU-Sim uArch: cycles simulated: 205500  inst.: 40988416 (ipc=199.5) sim_rate=471131 (inst/sec) elapsed = 0:0:01:27 / Fri Dec 16 07:21:03 2016
GPGPU-Sim PTX: 41100000 instructions simulated : ctaid=(3,1,0) tid=(15,7,0)
GPGPU-Sim PTX: 41200000 instructions simulated : ctaid=(47,0,0) tid=(15,1,0)
GPGPU-Sim PTX: 41300000 instructions simulated : ctaid=(2,1,0) tid=(15,9,0)
GPGPU-Sim PTX: 41400000 instructions simulated : ctaid=(2,1,0) tid=(15,9,0)
GPGPU-Sim PTX: 41500000 instructions simulated : ctaid=(58,0,0) tid=(15,13,0)
GPGPU-Sim uArch: cycles simulated: 208000  inst.: 41491552 (ipc=199.5) sim_rate=471494 (inst/sec) elapsed = 0:0:01:28 / Fri Dec 16 07:21:04 2016
GPGPU-Sim PTX: 41600000 instructions simulated : ctaid=(20,0,0) tid=(15,5,0)
GPGPU-Sim PTX: 41700000 instructions simulated : ctaid=(27,0,0) tid=(15,15,0)
GPGPU-Sim PTX: 41800000 instructions simulated : ctaid=(40,0,0) tid=(15,3,0)
GPGPU-Sim PTX: 41900000 instructions simulated : ctaid=(41,0,0) tid=(15,11,0)
GPGPU-Sim uArch: cycles simulated: 210000  inst.: 41890624 (ipc=199.5) sim_rate=470681 (inst/sec) elapsed = 0:0:01:29 / Fri Dec 16 07:21:05 2016
GPGPU-Sim PTX: 42000000 instructions simulated : ctaid=(22,0,0) tid=(15,11,0)
GPGPU-Sim PTX: 42100000 instructions simulated : ctaid=(49,0,0) tid=(15,1,0)
GPGPU-Sim PTX: 42200000 instructions simulated : ctaid=(24,0,0) tid=(15,7,0)
GPGPU-Sim PTX: 42300000 instructions simulated : ctaid=(27,0,0) tid=(15,1,0)
GPGPU-Sim PTX: 42400000 instructions simulated : ctaid=(21,0,0) tid=(15,1,0)
GPGPU-Sim uArch: cycles simulated: 212500  inst.: 42412800 (ipc=199.6) sim_rate=471253 (inst/sec) elapsed = 0:0:01:30 / Fri Dec 16 07:21:06 2016
GPGPU-Sim PTX: 42500000 instructions simulated : ctaid=(37,0,0) tid=(15,9,0)
GPGPU-Sim PTX: 42600000 instructions simulated : ctaid=(58,0,0) tid=(15,9,0)
GPGPU-Sim PTX: 42700000 instructions simulated : ctaid=(38,0,0) tid=(15,3,0)
GPGPU-Sim PTX: 42800000 instructions simulated : ctaid=(43,0,0) tid=(15,3,0)
GPGPU-Sim uArch: cycles simulated: 214500  inst.: 42791616 (ipc=199.5) sim_rate=470237 (inst/sec) elapsed = 0:0:01:31 / Fri Dec 16 07:21:07 2016
GPGPU-Sim PTX: 42900000 instructions simulated : ctaid=(21,0,0) tid=(15,3,0)
GPGPU-Sim PTX: 43000000 instructions simulated : ctaid=(29,0,0) tid=(15,11,0)
GPGPU-Sim uArch: Shader 13 finished CTA #1 (215721,0), 3 CTAs running
GPGPU-Sim uArch: core: 13, cta: 1 initialized @(215722,0)
GPGPU-Sim PTX: 43100000 instructions simulated : ctaid=(25,0,0) tid=(15,1,0)
GPGPU-Sim PTX: 43200000 instructions simulated : ctaid=(11,1,0) tid=(15,13,0)
GPGPU-Sim uArch: cycles simulated: 216500  inst.: 43218816 (ipc=199.6) sim_rate=469769 (inst/sec) elapsed = 0:0:01:32 / Fri Dec 16 07:21:08 2016
GPGPU-Sim uArch: Shader 4 finished CTA #1 (216576,0), 3 CTAs running
GPGPU-Sim uArch: core:  4, cta: 1 initialized @(216577,0)
GPGPU-Sim uArch: Shader 1 finished CTA #1 (216605,0), 3 CTAs running
GPGPU-Sim uArch: core:  1, cta: 1 initialized @(216606,0)
GPGPU-Sim PTX: 43300000 instructions simulated : ctaid=(48,0,0) tid=(15,5,0)
GPGPU-Sim uArch: Shader 10 finished CTA #1 (216841,0), 3 CTAs running
GPGPU-Sim uArch: core: 10, cta: 1 initialized @(216842,0)
GPGPU-Sim uArch: Shader 14 finished CTA #1 (217145,0), 3 CTAs running
GPGPU-Sim uArch: core: 14, cta: 1 initialized @(217146,0)
GPGPU-Sim PTX: 43400000 instructions simulated : ctaid=(35,0,0) tid=(15,5,0)
GPGPU-Sim PTX: 43500000 instructions simulated : ctaid=(39,0,0) tid=(15,7,0)
GPGPU-Sim uArch: Shader 0 finished CTA #1 (217858,0), 3 CTAs running
GPGPU-Sim uArch: core:  0, cta: 1 initialized @(217859,0)
GPGPU-Sim PTX: 43600000 instructions simulated : ctaid=(19,0,0) tid=(15,15,0)
GPGPU-Sim uArch: Shader 2 finished CTA #1 (218269,0), 3 CTAs running
GPGPU-Sim uArch: core:  2, cta: 1 initialized @(218270,0)
GPGPU-Sim uArch: Shader 3 finished CTA #1 (218484,0), 3 CTAs running
GPGPU-Sim uArch: core:  3, cta: 1 initialized @(218485,0)
GPGPU-Sim PTX: 43700000 instructions simulated : ctaid=(33,0,0) tid=(15,15,0)
GPGPU-Sim uArch: Shader 5 finished CTA #1 (218871,0), 3 CTAs running
GPGPU-Sim uArch: core:  5, cta: 1 initialized @(218872,0)
GPGPU-Sim uArch: cycles simulated: 219000  inst.: 43763392 (ipc=199.8) sim_rate=470574 (inst/sec) elapsed = 0:0:01:33 / Fri Dec 16 07:21:09 2016
GPGPU-Sim PTX: 43800000 instructions simulated : ctaid=(30,0,0) tid=(15,1,0)
GPGPU-Sim uArch: Shader 11 finished CTA #1 (219402,0), 3 CTAs running
GPGPU-Sim uArch: core: 11, cta: 1 initialized @(219403,0)
GPGPU-Sim PTX: 43900000 instructions simulated : ctaid=(33,0,0) tid=(15,9,0)
GPGPU-Sim uArch: Shader 8 finished CTA #1 (219693,0), 3 CTAs running
GPGPU-Sim uArch: core:  8, cta: 1 initialized @(219694,0)
GPGPU-Sim uArch: Shader 12 finished CTA #1 (219868,0), 3 CTAs running
GPGPU-Sim uArch: core: 12, cta: 1 initialized @(219869,0)
GPGPU-Sim PTX: 44000000 instructions simulated : ctaid=(34,0,0) tid=(15,1,0)
GPGPU-Sim uArch: Shader 7 finished CTA #1 (219906,0), 3 CTAs running
GPGPU-Sim uArch: core:  7, cta: 1 initialized @(219907,0)
GPGPU-Sim uArch: Shader 6 finished CTA #1 (220068,0), 3 CTAs running
GPGPU-Sim uArch: core:  6, cta: 1 initialized @(220069,0)
GPGPU-Sim PTX: 44100000 instructions simulated : ctaid=(34,0,0) tid=(15,3,0)
GPGPU-Sim uArch: Shader 9 finished CTA #1 (220472,0), 3 CTAs running
GPGPU-Sim uArch: core:  9, cta: 1 initialized @(220473,0)
GPGPU-Sim PTX: 44200000 instructions simulated : ctaid=(63,0,0) tid=(15,7,0)
GPGPU-Sim uArch: cycles simulated: 221000  inst.: 44235904 (ipc=200.2) sim_rate=470594 (inst/sec) elapsed = 0:0:01:34 / Fri Dec 16 07:21:10 2016
GPGPU-Sim PTX: 44300000 instructions simulated : ctaid=(40,0,0) tid=(15,11,0)
GPGPU-Sim PTX: 44400000 instructions simulated : ctaid=(2,1,0) tid=(15,3,0)
GPGPU-Sim PTX: 44500000 instructions simulated : ctaid=(59,0,0) tid=(15,9,0)
GPGPU-Sim PTX: 44600000 instructions simulated : ctaid=(41,0,0) tid=(15,13,0)
GPGPU-Sim uArch: cycles simulated: 223000  inst.: 44641248 (ipc=200.2) sim_rate=469907 (inst/sec) elapsed = 0:0:01:35 / Fri Dec 16 07:21:11 2016
GPGPU-Sim PTX: 44700000 instructions simulated : ctaid=(43,0,0) tid=(15,7,0)
GPGPU-Sim PTX: 44800000 instructions simulated : ctaid=(40,0,0) tid=(15,3,0)
GPGPU-Sim PTX: 44900000 instructions simulated : ctaid=(46,0,0) tid=(15,9,0)
GPGPU-Sim PTX: 45000000 instructions simulated : ctaid=(37,0,0) tid=(15,3,0)
GPGPU-Sim PTX: 45100000 instructions simulated : ctaid=(47,0,0) tid=(15,13,0)
GPGPU-Sim uArch: cycles simulated: 225500  inst.: 45129504 (ipc=200.1) sim_rate=470099 (inst/sec) elapsed = 0:0:01:36 / Fri Dec 16 07:21:12 2016
GPGPU-Sim PTX: 45200000 instructions simulated : ctaid=(31,0,0) tid=(15,3,0)
GPGPU-Sim PTX: 45300000 instructions simulated : ctaid=(44,0,0) tid=(15,5,0)
GPGPU-Sim PTX: 45400000 instructions simulated : ctaid=(57,0,0) tid=(15,11,0)
GPGPU-Sim PTX: 45500000 instructions simulated : ctaid=(61,0,0) tid=(15,3,0)
GPGPU-Sim uArch: cycles simulated: 227500  inst.: 45525600 (ipc=200.1) sim_rate=469336 (inst/sec) elapsed = 0:0:01:37 / Fri Dec 16 07:21:13 2016
GPGPU-Sim PTX: 45600000 instructions simulated : ctaid=(36,0,0) tid=(15,13,0)
GPGPU-Sim PTX: 45700000 instructions simulated : ctaid=(12,1,0) tid=(15,5,0)
GPGPU-Sim PTX: 45800000 instructions simulated : ctaid=(53,0,0) tid=(15,5,0)
GPGPU-Sim PTX: 45900000 instructions simulated : ctaid=(33,0,0) tid=(15,9,0)
GPGPU-Sim PTX: 46000000 instructions simulated : ctaid=(36,0,0) tid=(15,13,0)
GPGPU-Sim uArch: cycles simulated: 230000  inst.: 46028512 (ipc=200.1) sim_rate=469678 (inst/sec) elapsed = 0:0:01:38 / Fri Dec 16 07:21:14 2016
GPGPU-Sim PTX: 46100000 instructions simulated : ctaid=(36,0,0) tid=(15,7,0)
GPGPU-Sim PTX: 46200000 instructions simulated : ctaid=(34,0,0) tid=(15,13,0)
GPGPU-Sim PTX: 46300000 instructions simulated : ctaid=(54,0,0) tid=(15,15,0)
GPGPU-Sim PTX: 46400000 instructions simulated : ctaid=(42,0,0) tid=(15,11,0)
GPGPU-Sim uArch: cycles simulated: 232000  inst.: 46447008 (ipc=200.2) sim_rate=469161 (inst/sec) elapsed = 0:0:01:39 / Fri Dec 16 07:21:15 2016
GPGPU-Sim PTX: 46500000 instructions simulated : ctaid=(56,0,0) tid=(15,13,0)
GPGPU-Sim PTX: 46600000 instructions simulated : ctaid=(60,0,0) tid=(15,1,0)
GPGPU-Sim PTX: 46700000 instructions simulated : ctaid=(36,0,0) tid=(15,15,0)
GPGPU-Sim PTX: 46800000 instructions simulated : ctaid=(53,0,0) tid=(15,9,0)
GPGPU-Sim PTX: 46900000 instructions simulated : ctaid=(40,0,0) tid=(15,5,0)
GPGPU-Sim uArch: cycles simulated: 234500  inst.: 46926048 (ipc=200.1) sim_rate=469260 (inst/sec) elapsed = 0:0:01:40 / Fri Dec 16 07:21:16 2016
GPGPU-Sim PTX: 47000000 instructions simulated : ctaid=(35,0,0) tid=(15,11,0)
GPGPU-Sim PTX: 47100000 instructions simulated : ctaid=(38,0,0) tid=(15,13,0)
GPGPU-Sim PTX: 47200000 instructions simulated : ctaid=(58,0,0) tid=(15,9,0)
GPGPU-Sim PTX: 47300000 instructions simulated : ctaid=(45,0,0) tid=(15,5,0)
GPGPU-Sim uArch: cycles simulated: 236500  inst.: 47340800 (ipc=200.2) sim_rate=468720 (inst/sec) elapsed = 0:0:01:41 / Fri Dec 16 07:21:17 2016
GPGPU-Sim PTX: 47400000 instructions simulated : ctaid=(59,0,0) tid=(15,7,0)
GPGPU-Sim PTX: 47500000 instructions simulated : ctaid=(4,1,0) tid=(15,13,0)
GPGPU-Sim PTX: 47600000 instructions simulated : ctaid=(31,0,0) tid=(15,15,0)
GPGPU-Sim PTX: 47700000 instructions simulated : ctaid=(39,0,0) tid=(15,3,0)
GPGPU-Sim PTX: 47800000 instructions simulated : ctaid=(48,0,0) tid=(15,3,0)
GPGPU-Sim uArch: cycles simulated: 239000  inst.: 47823296 (ipc=200.1) sim_rate=468855 (inst/sec) elapsed = 0:0:01:42 / Fri Dec 16 07:21:18 2016
GPGPU-Sim PTX: 47900000 instructions simulated : ctaid=(44,0,0) tid=(15,3,0)
GPGPU-Sim PTX: 48000000 instructions simulated : ctaid=(33,0,0) tid=(15,11,0)
GPGPU-Sim PTX: 48100000 instructions simulated : ctaid=(33,0,0) tid=(15,1,0)
GPGPU-Sim PTX: 48200000 instructions simulated : ctaid=(43,0,0) tid=(15,11,0)
[...]
GPGPU-Sim PTX: 588400000 instructions simulated : ctaid=(14,9,0) tid=(15,3,0)
GPGPU-Sim PTX: 588500000 instructions simulated : ctaid=(28,8,0) tid=(15,11,0)
GPGPU-Sim PTX: 588600000 instructions simulated : ctaid=(39,8,0) tid=(15,5,0)
GPGPU-Sim PTX: 588700000 instructions simulated : ctaid=(57,8,0) tid=(15,5,0)
GPGPU-Sim uArch: cycles simulated: 2910000  inst.: 588419712 (ipc=202.2) sim_rate=443755 (inst/sec) elapsed = 0:0:22:06 / Fri Dec 16 07:41:42 2016
GPGPU-Sim PTX: 588800000 instructions simulated : ctaid=(31,8,0) tid=(15,15,0)
GPGPU-Sim PTX: 588900000 instructions simulated : ctaid=(46,8,0) tid=(15,7,0)
GPGPU-Sim PTX: 589000000 instructions simulated : ctaid=(32,8,0) tid=(15,7,0)
GPGPU-Sim PTX: 589100000 instructions simulated : ctaid=(42,8,0) tid=(15,3,0)
GPGPU-Sim PTX: 589200000 instructions simulated : ctaid=(31,8,0) tid=(15,7,0)
GPGPU-Sim uArch: cycles simulated: 2912500  inst.: 588927680 (ipc=202.2) sim_rate=443803 (inst/sec) elapsed = 0:0:22:07 / Fri Dec 16 07:41:43 2016
GPGPU-Sim PTX: 589300000 instructions simulated : ctaid=(50,8,0) tid=(15,1,0)
GPGPU-Sim PTX: 589400000 instructions simulated : ctaid=(58,8,0) tid=(15,7,0)
GPGPU-Sim PTX: 589500000 instructions simulated : ctaid=(54,8,0) tid=(15,11,0)
GPGPU-Sim PTX: 589600000 instructions simulated : ctaid=(31,8,0) tid=(15,13,0)
GPGPU-Sim uArch: cycles simulated: 2914500  inst.: 589330400 (ipc=202.2) sim_rate=443772 (inst/sec) elapsed = 0:0:22:08 / Fri Dec 16 07:41:44 2016
GPGPU-Sim PTX: 589700000 instructions simulated : ctaid=(31,8,0) tid=(15,3,0)
GPGPU-Sim PTX: 589800000 instructions simulated : ctaid=(4,9,0) tid=(15,5,0)
GPGPU-Sim PTX: 589900000 instructions simulated : ctaid=(35,8,0) tid=(15,13,0)
GPGPU-Sim PTX: 590000000 instructions simulated : ctaid=(40,8,0) tid=(15,13,0)
GPGPU-Sim PTX: 590100000 instructions simulated : ctaid=(56,8,0) tid=(15,3,0)
GPGPU-Sim uArch: cycles simulated: 2917000  inst.: 589841440 (ipc=202.2) sim_rate=443823 (inst/sec) elapsed = 0:0:22:09 / Fri Dec 16 07:41:45 2016
GPGPU-Sim PTX: 590200000 instructions simulated : ctaid=(43,8,0) tid=(15,11,0)
GPGPU-Sim PTX: 590300000 instructions simulated : ctaid=(49,8,0) tid=(15,3,0)
GPGPU-Sim PTX: 590400000 instructions simulated : ctaid=(46,8,0) tid=(15,7,0)
GPGPU-Sim PTX: 590500000 instructions simulated : ctaid=(38,8,0) tid=(15,13,0)
GPGPU-Sim PTX: 590600000 instructions simulated : ctaid=(49,8,0) tid=(15,13,0)
GPGPU-Sim uArch: cycles simulated: 2919500  inst.: 590336160 (ipc=202.2) sim_rate=443861 (inst/sec) elapsed = 0:0:22:10 / Fri Dec 16 07:41:46 2016
GPGPU-Sim PTX: 590700000 instructions simulated : ctaid=(42,8,0) tid=(15,11,0)
GPGPU-Sim PTX: 590800000 instructions simulated : ctaid=(31,8,0) tid=(15,9,0)
GPGPU-Sim PTX: 590900000 instructions simulated : ctaid=(62,8,0) tid=(15,3,0)
GPGPU-Sim PTX: 591000000 instructions simulated : ctaid=(16,9,0) tid=(15,7,0)
GPGPU-Sim uArch: cycles simulated: 2921500  inst.: 590740096 (ipc=202.2) sim_rate=443831 (inst/sec) elapsed = 0:0:22:11 / Fri Dec 16 07:41:47 2016
GPGPU-Sim PTX: 591100000 instructions simulated : ctaid=(46,8,0) tid=(15,3,0)
GPGPU-Sim PTX: 591200000 instructions simulated : ctaid=(39,8,0) tid=(15,7,0)
GPGPU-Sim PTX: 591300000 instructions simulated : ctaid=(52,8,0) tid=(15,11,0)
GPGPU-Sim PTX: 591400000 instructions simulated : ctaid=(12,9,0) tid=(15,5,0)
GPGPU-Sim PTX: 591500000 instructions simulated : ctaid=(35,8,0) tid=(15,13,0)
GPGPU-Sim uArch: cycles simulated: 2924000  inst.: 591247488 (ipc=202.2) sim_rate=443879 (inst/sec) elapsed = 0:0:22:12 / Fri Dec 16 07:41:48 2016
GPGPU-Sim PTX: 591600000 instructions simulated : ctaid=(37,8,0) tid=(15,7,0)
GPGPU-Sim PTX: 591700000 instructions simulated : ctaid=(31,8,0) tid=(15,5,0)
GPGPU-Sim PTX: 591800000 instructions simulated : ctaid=(49,8,0) tid=(15,9,0)
GPGPU-Sim PTX: 591900000 instructions simulated : ctaid=(51,8,0) tid=(15,11,0)
GPGPU-Sim uArch: cycles simulated: 2926000  inst.: 591639712 (ipc=202.2) sim_rate=443840 (inst/sec) elapsed = 0:0:22:13 / Fri Dec 16 07:41:49 2016
GPGPU-Sim PTX: 592000000 instructions simulated : ctaid=(16,9,0) tid=(15,3,0)
GPGPU-Sim PTX: 592100000 instructions simulated : ctaid=(1,9,0) tid=(15,1,0)
GPGPU-Sim PTX: 592200000 instructions simulated : ctaid=(44,8,0) tid=(15,9,0)
GPGPU-Sim PTX: 592300000 instructions simulated : ctaid=(32,8,0) tid=(15,3,0)
GPGPU-Sim PTX: 592400000 instructions simulated : ctaid=(7,9,0) tid=(15,9,0)
GPGPU-Sim uArch: cycles simulated: 2928500  inst.: 592153376 (ipc=202.2) sim_rate=443893 (inst/sec) elapsed = 0:0:22:14 / Fri Dec 16 07:41:50 2016
GPGPU-Sim PTX: 592500000 instructions simulated : ctaid=(37,8,0) tid=(15,9,0)
GPGPU-Sim PTX: 592600000 instructions simulated : ctaid=(28,8,0) tid=(15,7,0)
GPGPU-Sim PTX: 592700000 instructions simulated : ctaid=(42,8,0) tid=(15,13,0)
GPGPU-Sim PTX: 592800000 instructions simulated : ctaid=(42,8,0) tid=(15,1,0)
GPGPU-Sim PTX: 592900000 instructions simulated : ctaid=(33,8,0) tid=(15,1,0)
GPGPU-Sim uArch: cycles simulated: 2931000  inst.: 592650368 (ipc=202.2) sim_rate=443932 (inst/sec) elapsed = 0:0:22:15 / Fri Dec 16 07:41:51 2016
GPGPU-Sim PTX: 593000000 instructions simulated : ctaid=(60,8,0) tid=(15,15,0)
GPGPU-Sim PTX: 593100000 instructions simulated : ctaid=(28,8,0) tid=(15,3,0)
GPGPU-Sim PTX: 593200000 instructions simulated : ctaid=(55,8,0) tid=(15,13,0)
GPGPU-Sim PTX: 593300000 instructions simulated : ctaid=(42,8,0) tid=(15,9,0)
GPGPU-Sim uArch: cycles simulated: 2933000  inst.: 593063968 (ipc=202.2) sim_rate=443910 (inst/sec) elapsed = 0:0:22:16 / Fri Dec 16 07:41:52 2016
GPGPU-Sim PTX: 593400000 instructions simulated : ctaid=(32,8,0) tid=(15,5,0)
GPGPU-Sim PTX: 593500000 instructions simulated : ctaid=(36,8,0) tid=(15,7,0)
GPGPU-Sim PTX: 593600000 instructions simulated : ctaid=(47,8,0) tid=(15,11,0)
GPGPU-Sim PTX: 593700000 instructions simulated : ctaid=(40,8,0) tid=(15,11,0)
GPGPU-Sim PTX: 593800000 instructions simulated : ctaid=(38,8,0) tid=(15,7,0)
GPGPU-Sim uArch: cycles simulated: 2935500  inst.: 593559520 (ipc=202.2) sim_rate=443948 (inst/sec) elapsed = 0:0:22:17 / Fri Dec 16 07:41:53 2016
GPGPU-Sim PTX: 593900000 instructions simulated : ctaid=(42,8,0) tid=(15,13,0)
GPGPU-Sim PTX: 594000000 instructions simulated : ctaid=(39,8,0) tid=(15,5,0)
GPGPU-Sim PTX: 594100000 instructions simulated : ctaid=(32,8,0) tid=(15,5,0)
GPGPU-Sim PTX: 594200000 instructions simulated : ctaid=(37,8,0) tid=(15,1,0)
GPGPU-Sim uArch: cycles simulated: 2937500  inst.: 593968512 (ipc=202.2) sim_rate=443922 (inst/sec) elapsed = 0:0:22:18 / Fri Dec 16 07:41:54 2016
GPGPU-Sim PTX: 594300000 instructions simulated : ctaid=(39,8,0) tid=(15,3,0)
GPGPU-Sim PTX: 594400000 instructions simulated : ctaid=(45,8,0) tid=(15,3,0)
GPGPU-Sim PTX: 594500000 instructions simulated : ctaid=(11,9,0) tid=(15,13,0)
GPGPU-Sim PTX: 594600000 instructions simulated : ctaid=(50,8,0) tid=(15,3,0)
GPGPU-Sim PTX: 594700000 instructions simulated : ctaid=(1,9,0) tid=(15,7,0)
GPGPU-Sim uArch: cycles simulated: 2940000  inst.: 594460128 (ipc=202.2) sim_rate=443958 (inst/sec) elapsed = 0:0:22:19 / Fri Dec 16 07:41:55 2016
GPGPU-Sim PTX: 594800000 instructions simulated : ctaid=(51,8,0) tid=(15,11,0)
GPGPU-Sim PTX: 594900000 instructions simulated : ctaid=(43,8,0) tid=(15,9,0)
GPGPU-Sim PTX: 595000000 instructions simulated : ctaid=(33,8,0) tid=(15,9,0)
GPGPU-Sim PTX: 595100000 instructions simulated : ctaid=(41,8,0) tid=(15,3,0)
GPGPU-Sim PTX: 595200000 instructions simulated : ctaid=(39,8,0) tid=(15,7,0)
GPGPU-Sim uArch: cycles simulated: 2942500  inst.: 594951104 (ipc=202.2) sim_rate=443993 (inst/sec) elapsed = 0:0:22:20 / Fri Dec 16 07:41:56 2016
GPGPU-Sim PTX: 595300000 instructions simulated : ctaid=(43,8,0) tid=(15,3,0)
GPGPU-Sim PTX: 595400000 instructions simulated : ctaid=(15,9,0) tid=(15,5,0)
GPGPU-Sim PTX: 595500000 instructions simulated : ctaid=(28,8,0) tid=(15,5,0)
GPGPU-Sim PTX: 595600000 instructions simulated : ctaid=(34,8,0) tid=(15,13,0)
GPGPU-Sim uArch: cycles simulated: 2944500  inst.: 595365408 (ipc=202.2) sim_rate=443971 (inst/sec) elapsed = 0:0:22:21 / Fri Dec 16 07:41:57 2016
GPGPU-Sim PTX: 595700000 instructions simulated : ctaid=(32,8,0) tid=(15,5,0)
GPGPU-Sim PTX: 595800000 instructions simulated : ctaid=(6,9,0) tid=(15,13,0)
GPGPU-Sim PTX: 595900000 instructions simulated : ctaid=(39,8,0) tid=(15,3,0)
GPGPU-Sim PTX: 596000000 instructions simulated : ctaid=(28,8,0) tid=(15,1,0)
GPGPU-Sim PTX: 596100000 instructions simulated : ctaid=(56,8,0) tid=(15,15,0)
GPGPU-Sim uArch: cycles simulated: 2947000  inst.: 595871840 (ipc=202.2) sim_rate=444017 (inst/sec) elapsed = 0:0:22:22 / Fri Dec 16 07:41:58 2016
GPGPU-Sim PTX: 596200000 instructions simulated : ctaid=(7,9,0) tid=(15,1,0)
GPGPU-Sim PTX: 596300000 instructions simulated : ctaid=(21,9,0) tid=(15,1,0)
GPGPU-Sim PTX: 596400000 instructions simulated : ctaid=(33,8,0) tid=(15,7,0)
GPGPU-Sim PTX: 596500000 instructions simulated : ctaid=(30,8,0) tid=(15,1,0)
GPGPU-Sim PTX: 596600000 instructions simulated : ctaid=(35,8,0) tid=(15,3,0)
GPGPU-Sim uArch: cycles simulated: 2949500  inst.: 596360416 (ipc=202.2) sim_rate=444050 (inst/sec) elapsed = 0:0:22:23 / Fri Dec 16 07:41:59 2016
GPGPU-Sim PTX: 596700000 instructions simulated : ctaid=(42,8,0) tid=(15,3,0)
GPGPU-Sim PTX: 596800000 instructions simulated : ctaid=(42,8,0) tid=(15,15,0)
GPGPU-Sim PTX: 596900000 instructions simulated : ctaid=(34,8,0) tid=(15,9,0)
GPGPU-Sim PTX: 597000000 instructions simulated : ctaid=(37,8,0) tid=(15,1,0)
GPGPU-Sim uArch: cycles simulated: 2951500  inst.: 596755072 (ipc=202.2) sim_rate=444014 (inst/sec) elapsed = 0:0:22:24 / Fri Dec 16 07:42:00 2016
GPGPU-Sim PTX: 597100000 instructions simulated : ctaid=(49,8,0) tid=(15,9,0)
GPGPU-Sim PTX: 597200000 instructions simulated : ctaid=(28,8,0) tid=(15,13,0)
GPGPU-Sim PTX: 597300000 instructions simulated : ctaid=(38,8,0) tid=(15,11,0)
GPGPU-Sim PTX: 597400000 instructions simulated : ctaid=(42,8,0) tid=(15,11,0)
GPGPU-Sim PTX: 597500000 instructions simulated : ctaid=(48,8,0) tid=(15,13,0)
GPGPU-Sim uArch: cycles simulated: 2954000  inst.: 597259200 (ipc=202.2) sim_rate=444058 (inst/sec) elapsed = 0:0:22:25 / Fri Dec 16 07:42:01 2016
GPGPU-Sim PTX: 597600000 instructions simulated : ctaid=(42,8,0) tid=(15,9,0)
GPGPU-Sim PTX: 597700000 instructions simulated : ctaid=(28,8,0) tid=(15,13,0)
GPGPU-Sim PTX: 597800000 instructions simulated : ctaid=(55,8,0) tid=(15,13,0)
GPGPU-Sim PTX: 597900000 instructions simulated : ctaid=(47,8,0) tid=(15,13,0)
GPGPU-Sim PTX: 598000000 instructions simulated : ctaid=(48,8,0) tid=(15,3,0)
GPGPU-Sim uArch: cycles simulated: 2956500  inst.: 597770784 (ipc=202.2) sim_rate=444109 (inst/sec) elapsed = 0:0:22:26 / Fri Dec 16 07:42:02 2016
GPGPU-Sim PTX: 598100000 instructions simulated : ctaid=(41,8,0) tid=(15,7,0)
GPGPU-Sim PTX: 598200000 instructions simulated : ctaid=(30,8,0) tid=(15,5,0)
GPGPU-Sim PTX: 598300000 instructions simulated : ctaid=(16,9,0) tid=(15,5,0)
GPGPU-Sim PTX: 598400000 instructions simulated : ctaid=(58,8,0) tid=(15,5,0)
GPGPU-Sim PTX: 598500000 instructions simulated : ctaid=(59,8,0) tid=(15,1,0)
GPGPU-Sim uArch: cycles simulated: 2959000  inst.: 598257952 (ipc=202.2) sim_rate=444141 (inst/sec) elapsed = 0:0:22:27 / Fri Dec 16 07:42:03 2016
GPGPU-Sim PTX: 598600000 instructions simulated : ctaid=(37,8,0) tid=(15,15,0)
GPGPU-Sim uArch: Shader 2 finished CTA #0 (2959566,0), 3 CTAs running
GPGPU-Sim uArch: core:  2, cta: 0 initialized @(2959567,0)
GPGPU-Sim PTX: 598700000 instructions simulated : ctaid=(62,8,0) tid=(15,11,0)
GPGPU-Sim PTX: 598800000 instructions simulated : ctaid=(37,8,0) tid=(15,1,0)
GPGPU-Sim PTX: 598900000 instructions simulated : ctaid=(60,8,0) tid=(15,5,0)
GPGPU-Sim uArch: cycles simulated: 2961000  inst.: 598675936 (ipc=202.2) sim_rate=444121 (inst/sec) elapsed = 0:0:22:28 / Fri Dec 16 07:42:04 2016
GPGPU-Sim PTX: 599000000 instructions simulated : ctaid=(54,8,0) tid=(15,9,0)
GPGPU-Sim uArch: Shader 4 finished CTA #0 (2961306,0), 3 CTAs running
GPGPU-Sim uArch: core:  4, cta: 0 initialized @(2961307,0)
GPGPU-Sim PTX: 599100000 instructions simulated : ctaid=(40,8,0) tid=(15,1,0)
GPGPU-Sim uArch: Shader 0 finished CTA #0 (2961862,0), 3 CTAs running
GPGPU-Sim uArch: core:  0, cta: 0 initialized @(2961863,0)
GPGPU-Sim PTX: 599200000 instructions simulated : ctaid=(31,8,0) tid=(15,11,0)
GPGPU-Sim PTX: 599300000 instructions simulated : ctaid=(37,8,0) tid=(15,3,0)
GPGPU-Sim uArch: cycles simulated: 2963000  inst.: 599090560 (ipc=202.2) sim_rate=444099 (inst/sec) elapsed = 0:0:22:29 / Fri Dec 16 07:42:05 2016
GPGPU-Sim PTX: 599400000 instructions simulated : ctaid=(45,8,0) tid=(15,9,0)
GPGPU-Sim uArch: Shader 10 finished CTA #0 (2963108,0), 3 CTAs running
GPGPU-Sim uArch: core: 10, cta: 0 initialized @(2963109,0)
GPGPU-Sim PTX: 599500000 instructions simulated : ctaid=(59,8,0) tid=(15,11,0)
GPGPU-Sim uArch: Shader 13 finished CTA #0 (2963716,0), 3 CTAs running
GPGPU-Sim uArch: core: 13, cta: 0 initialized @(2963717,0)
GPGPU-Sim uArch: Shader 9 finished CTA #0 (2963950,0), 3 CTAs running
GPGPU-Sim uArch: core:  9, cta: 0 initialized @(2963951,0)
GPGPU-Sim PTX: 599600000 instructions simulated : ctaid=(39,8,0) tid=(15,5,0)
GPGPU-Sim uArch: Shader 7 finished CTA #0 (2964198,0), 3 CTAs running
GPGPU-Sim uArch: core:  7, cta: 0 initialized @(2964199,0)
GPGPU-Sim PTX: 599700000 instructions simulated : ctaid=(19,9,0) tid=(15,9,0)
GPGPU-Sim PTX: 599800000 instructions simulated : ctaid=(42,8,0) tid=(15,3,0)
GPGPU-Sim uArch: Shader 8 finished CTA #0 (2965106,0), 3 CTAs running
GPGPU-Sim uArch: core:  8, cta: 0 initialized @(2965107,0)
GPGPU-Sim PTX: 599900000 instructions simulated : ctaid=(50,8,0) tid=(15,9,0)
GPGPU-Sim uArch: Shader 6 finished CTA #0 (2965347,0), 3 CTAs running
GPGPU-Sim uArch: core:  6, cta: 0 initialized @(2965348,0)
GPGPU-Sim uArch: cycles simulated: 2965500  inst.: 599642528 (ipc=202.2) sim_rate=444179 (inst/sec) elapsed = 0:0:22:30 / Fri Dec 16 07:42:06 2016
GPGPU-Sim uArch: Shader 1 finished CTA #0 (2965749,0), 3 CTAs running
GPGPU-Sim uArch: core:  1, cta: 0 initialized @(2965750,0)
GPGPU-Sim PTX: 600000000 instructions simulated : ctaid=(53,8,0) tid=(15,1,0)
GPGPU-Sim PTX: 600100000 instructions simulated : ctaid=(40,8,0) tid=(15,11,0)
GPGPU-Sim uArch: Shader 14 finished CTA #0 (2966637,0), 3 CTAs running
GPGPU-Sim uArch: core: 14, cta: 0 initialized @(2966638,0)
GPGPU-Sim PTX: 600200000 instructions simulated : ctaid=(4,9,0) tid=(15,15,0)
GPGPU-Sim PTX: 600300000 instructions simulated : ctaid=(43,8,0) tid=(15,1,0)
GPGPU-Sim uArch: Shader 5 finished CTA #0 (2967316,0), 3 CTAs running
GPGPU-Sim uArch: core:  5, cta: 0 initialized @(2967317,0)
GPGPU-Sim uArch: Shader 3 finished CTA #0 (2967326,0), 3 CTAs running
GPGPU-Sim uArch: core:  3, cta: 0 initialized @(2967327,0)
GPGPU-Sim uArch: cycles simulated: 2967500  inst.: 600084448 (ipc=202.2) sim_rate=444177 (inst/sec) elapsed = 0:0:22:31 / Fri Dec 16 07:42:07 2016
GPGPU-Sim PTX: 600400000 instructions simulated : ctaid=(58,8,0) tid=(15,7,0)
GPGPU-Sim uArch: Shader 11 finished CTA #0 (2967932,0), 3 CTAs running
GPGPU-Sim uArch: core: 11, cta: 0 initialized @(2967933,0)
GPGPU-Sim PTX: 600500000 instructions simulated : ctaid=(56,8,0) tid=(15,15,0)
GPGPU-Sim PTX: 600600000 instructions simulated : ctaid=(52,8,0) tid=(15,9,0)
GPGPU-Sim PTX: 600700000 instructions simulated : ctaid=(9,9,0) tid=(15,11,0)
GPGPU-Sim uArch: Shader 12 finished CTA #0 (2969208,0), 3 CTAs running
GPGPU-Sim uArch: core: 12, cta: 0 initialized @(2969209,0)
GPGPU-Sim PTX: 600800000 instructions simulated : ctaid=(5,9,0) tid=(15,15,0)
GPGPU-Sim uArch: cycles simulated: 2969500  inst.: 600510304 (ipc=202.2) sim_rate=444164 (inst/sec) elapsed = 0:0:22:32 / Fri Dec 16 07:42:08 2016
GPGPU-Sim PTX: 600900000 instructions simulated : ctaid=(57,8,0) tid=(15,11,0)
GPGPU-Sim PTX: 601000000 instructions simulated : ctaid=(7,9,0) tid=(15,7,0)
GPGPU-Sim PTX: 601100000 instructions simulated : ctaid=(53,8,0) tid=(15,5,0)
GPGPU-Sim PTX: 601200000 instructions simulated : ctaid=(29,9,0) tid=(15,9,0)
GPGPU-Sim uArch: cycles simulated: 2971500  inst.: 600923424 (ipc=202.2) sim_rate=444141 (inst/sec) elapsed = 0:0:22:33 / Fri Dec 16 07:42:09 2016
GPGPU-Sim PTX: 601300000 instructions simulated : ctaid=(52,8,0) tid=(15,5,0)
GPGPU-Sim PTX: 601400000 instructions simulated : ctaid=(54,8,0) tid=(15,9,0)
GPGPU-Sim PTX: 601500000 instructions simulated : ctaid=(4,9,0) tid=(15,1,0)
GPGPU-Sim PTX: 601600000 instructions simulated : ctaid=(2,9,0) tid=(15,5,0)
GPGPU-Sim PTX: 601700000 instructions simulated : ctaid=(18,9,0) tid=(15,9,0)
GPGPU-Sim uArch: cycles simulated: 2974000  inst.: 601408384 (ipc=202.2) sim_rate=444171 (inst/sec) elapsed = 0:0:22:34 / Fri Dec 16 07:42:10 2016
GPGPU-Sim PTX: 601800000 instructions simulated : ctaid=(45,8,0) tid=(15,5,0)
GPGPU-Sim PTX: 601900000 instructions simulated : ctaid=(46,8,0) tid=(15,15,0)
GPGPU-Sim PTX: 602000000 instructions simulated : ctaid=(7,9,0) tid=(15,9,0)
GPGPU-Sim PTX: 602100000 instructions simulated : ctaid=(8,9,0) tid=(15,1,0)
GPGPU-Sim uArch: cycles simulated: 2976000  inst.: 601812256 (ipc=202.2) sim_rate=444141 (inst/sec) elapsed = 0:0:22:35 / Fri Dec 16 07:42:11 2016
GPGPU-Sim PTX: 602200000 instructions simulated : ctaid=(60,8,0) tid=(15,15,0)
GPGPU-Sim PTX: 602300000 instructions simulated : ctaid=(44,8,0) tid=(15,13,0)
GPGPU-Sim PTX: 602400000 instructions simulated : ctaid=(45,8,0) tid=(15,9,0)
GPGPU-Sim PTX: 602500000 instructions simulated : ctaid=(51,8,0) tid=(15,3,0)
GPGPU-Sim PTX: 602600000 instructions simulated : ctaid=(22,9,0) tid=(15,13,0)
GPGPU-Sim uArch: cycles simulated: 2978500  inst.: 602311360 (ipc=202.2) sim_rate=444182 (inst/sec) elapsed = 0:0:22:36 / Fri Dec 16 07:42:12 2016
GPGPU-Sim PTX: 602700000 instructions simulated : ctaid=(50,8,0) tid=(15,9,0)
GPGPU-Sim PTX: 602800000 instructions simulated : ctaid=(51,8,0) tid=(15,5,0)
GPGPU-Sim PTX: 602900000 instructions simulated : ctaid=(4,9,0) tid=(15,11,0)
GPGPU-Sim PTX: 603000000 instructions simulated : ctaid=(5,9,0) tid=(15,3,0)
GPGPU-Sim uArch: cycles simulated: 2980500  inst.: 602727040 (ipc=202.2) sim_rate=444161 (inst/sec) elapsed = 0:0:22:37 / Fri Dec 16 07:42:13 2016
GPGPU-Sim PTX: 603100000 instructions simulated : ctaid=(32,9,0) tid=(15,7,0)
GPGPU-Sim PTX: 603200000 instructions simulated : ctaid=(63,8,0) tid=(15,5,0)
GPGPU-Sim PTX: 603300000 instructions simulated : ctaid=(17,9,0) tid=(15,11,0)
GPGPU-Sim PTX: 603400000 instructions simulated : ctaid=(9,9,0) tid=(15,9,0)
GPGPU-Sim uArch: cycles simulated: 2982500  inst.: 603123040 (ipc=202.2) sim_rate=444125 (inst/sec) elapsed = 0:0:22:38 / Fri Dec 16 07:42:14 2016
GPGPU-Sim PTX: 603500000 instructions simulated : ctaid=(50,8,0) tid=(15,15,0)
GPGPU-Sim PTX: 603600000 instructions simulated : ctaid=(54,8,0) tid=(15,11,0)
GPGPU-Sim PTX: 603700000 instructions simulated : ctaid=(57,8,0) tid=(15,3,0)
GPGPU-Sim PTX: 603800000 instructions simulated : ctaid=(46,8,0) tid=(15,11,0)
GPGPU-Sim PTX: 603900000 instructions simulated : ctaid=(8,9,0) tid=(15,1,0)
GPGPU-Sim uArch: cycles simulated: 2985000  inst.: 603624288 (ipc=202.2) sim_rate=444167 (inst/sec) elapsed = 0:0:22:39 / Fri Dec 16 07:42:15 2016
GPGPU-Sim PTX: 604000000 instructions simulated : ctaid=(34,9,0) tid=(15,15,0)
GPGPU-Sim PTX: 604100000 instructions simulated : ctaid=(7,9,0) tid=(15,3,0)
GPGPU-Sim PTX: 604200000 instructions simulated : ctaid=(15,9,0) tid=(15,15,0)
GPGPU-Sim PTX: 604300000 instructions simulated : ctaid=(59,8,0) tid=(15,7,0)
GPGPU-Sim PTX: 604400000 instructions simulated : ctaid=(63,8,0) tid=(15,15,0)
GPGPU-Sim uArch: cycles simulated: 2987500  inst.: 604120256 (ipc=202.2) sim_rate=444206 (inst/sec) elapsed = 0:0:22:40 / Fri Dec 16 07:42:16 2016
GPGPU-Sim PTX: 604500000 instructions simulated : ctaid=(58,8,0) tid=(15,3,0)
GPGPU-Sim PTX: 604600000 instructions simulated : ctaid=(57,8,0) tid=(15,15,0)
GPGPU-Sim PTX: 604700000 instructions simulated : ctaid=(56,8,0) tid=(15,15,0)
GPGPU-Sim PTX: 604800000 instructions simulated : ctaid=(45,8,0) tid=(15,7,0)
