

        *** GPGPU-Sim Simulator Version 3.2.2  [build 0] ***


GPGPU-Sim PTX: simulation mode 0 (can change with PTX_SIM_MODE_FUNC environment variable:
               1=functional simulation only, 0=detailed performance simulator)
GPGPU-Sim PTX: overriding embedded ptx with ptx file (PTX_SIM_USE_PTX_FILE is set)
DEBUG2 File name parsing = test.ptx
GPGPU-Sim: Configuration options:

-network_mode                           1 # Interconnection network mode
-inter_config_file   config_fermi_islip.icnt # Interconnection network config file
-gpgpu_ptx_use_cuobjdump                    1 # Use cuobjdump to extract ptx and sass from binaries
-gpgpu_experimental_lib_support                    0 # Try to extract code from cuda libraries [Broken because of unknown cudaGetExportTable]
-gpgpu_ptx_convert_to_ptxplus                    0 # Convert SASS (native ISA) to ptxplus and run ptxplus
-gpgpu_ptx_force_max_capability                   20 # Force maximum compute capability
-gpgpu_ptx_inst_debug_to_file                    0 # Dump executed instructions' debug information to file
-gpgpu_ptx_inst_debug_file       inst_debug.txt # Executed instructions' debug output file
-gpgpu_ptx_inst_debug_thread_uid                    1 # Thread UID for executed instructions' debug output
-gpgpu_simd_model                       1 # 1 = post-dominator
-gpgpu_shader_core_pipeline              1536:32 # shader core pipeline config, i.e., {<nthread>:<warpsize>}
-gpgpu_tex_cache:l1  4:128:24,L:R:m:N:L,F:128:4,128:2 # per-shader L1 texture cache  (READ-ONLY) config  {<nsets>:<bsize>:<assoc>,<rep>:<wr>:<alloc>:<wr_alloc>,<mshr>:<N>:<merge>,<mq>:<rf>}
-gpgpu_const_cache:l1 64:64:2,L:R:f:N:L,A:2:32,4 # per-shader L1 constant memory cache  (READ-ONLY) config  {<nsets>:<bsize>:<assoc>,<rep>:<wr>:<alloc>:<wr_alloc>,<mshr>:<N>:<merge>,<mq>} 
-gpgpu_cache:il1     4:128:4,L:R:f:N:L,A:2:32,4 # shader L1 instruction cache config  {<nsets>:<bsize>:<assoc>,<rep>:<wr>:<alloc>:<wr_alloc>,<mshr>:<N>:<merge>,<mq>} 
-gpgpu_cache:dl1     32:128:4,L:L:m:N:H,A:32:8,8 # per-shader L1 data cache config  {<nsets>:<bsize>:<assoc>,<rep>:<wr>:<alloc>:<wr_alloc>,<mshr>:<N>:<merge>,<mq> | none}
-gpgpu_cache:dl1PrefL1                 none # per-shader L1 data cache config  {<nsets>:<bsize>:<assoc>,<rep>:<wr>:<alloc>:<wr_alloc>,<mshr>:<N>:<merge>,<mq> | none}
-gpgpu_cache:dl1PreShared                 none # per-shader L1 data cache config  {<nsets>:<bsize>:<assoc>,<rep>:<wr>:<alloc>:<wr_alloc>,<mshr>:<N>:<merge>,<mq> | none}
-gmem_skip_L1D                          0 # global memory access skip L1D cache (implements -Xptxas -dlcm=cg, default=no skip)
-gpgpu_perfect_mem                      0 # enable perfect memory mode (no cache miss)
-n_regfile_gating_group                    4 # group of lanes that should be read/written together)
-gpgpu_clock_gated_reg_file                    0 # enable clock gated reg file for power calculations
-gpgpu_clock_gated_lanes                    0 # enable clock gated lanes for power calculations
-gpgpu_shader_registers                32768 # Number of registers per shader core. Limits number of concurrent CTAs. (default 8192)
-gpgpu_shader_cta                       8 # Maximum number of concurrent CTAs in shader (default 8)
-gpgpu_num_cta_barriers                   16 # Maximum number of named barriers per CTA (default 16)
-gpgpu_n_clusters                      15 # number of processing clusters
-gpgpu_n_cores_per_cluster                    1 # number of simd cores per cluster
-gpgpu_n_cluster_ejection_buffer_size                    8 # number of packets in ejection buffer
-gpgpu_n_ldst_response_buffer_size                    2 # number of response packets in ld/st unit ejection buffer
-gpgpu_shmem_size                   16384 # Size of shared memory per shader core (default 16kB)
-gpgpu_shmem_size                   49152 # Size of shared memory per shader core (default 16kB)
-gpgpu_shmem_size_PrefL1                16384 # Size of shared memory per shader core (default 16kB)
-gpgpu_shmem_size_PrefShared                16384 # Size of shared memory per shader core (default 16kB)
-gpgpu_shmem_num_banks                   32 # Number of banks in the shared memory in each shader core (default 16)
-gpgpu_shmem_limited_broadcast                    0 # Limit shared memory to do one broadcast per cycle (default on)
-gpgpu_shmem_warp_parts                    1 # Number of portions a warp is divided into for shared memory bank conflict check 
-gpgpu_warpdistro_shader                   -1 # Specify which shader core to collect the warp size distribution from
-gpgpu_warp_issue_shader                    0 # Specify which shader core to collect the warp issue distribution from
-gpgpu_local_mem_map                    1 # Mapping from local memory space address to simulated GPU physical address space (default = enabled)
-gpgpu_num_reg_banks                   16 # Number of register banks (default = 8)
-gpgpu_reg_bank_use_warp_id                    0 # Use warp ID in mapping registers to banks (default = off)
-gpgpu_operand_collector_num_units_sp                    6 # number of collector units (default = 4)
-gpgpu_operand_collector_num_units_sfu                    8 # number of collector units (default = 4)
-gpgpu_operand_collector_num_units_mem                    2 # number of collector units (default = 2)
-gpgpu_operand_collector_num_units_gen                    0 # number of collector units (default = 0)
-gpgpu_operand_collector_num_in_ports_sp                    2 # number of collector unit in ports (default = 1)
-gpgpu_operand_collector_num_in_ports_sfu                    1 # number of collector unit in ports (default = 1)
-gpgpu_operand_collector_num_in_ports_mem                    1 # number of collector unit in ports (default = 1)
-gpgpu_operand_collector_num_in_ports_gen                    0 # number of collector unit in ports (default = 0)
-gpgpu_operand_collector_num_out_ports_sp                    2 # number of collector unit in ports (default = 1)
-gpgpu_operand_collector_num_out_ports_sfu                    1 # number of collector unit in ports (default = 1)
-gpgpu_operand_collector_num_out_ports_mem                    1 # number of collector unit in ports (default = 1)
-gpgpu_operand_collector_num_out_ports_gen                    0 # number of collector unit in ports (default = 0)
-gpgpu_coalesce_arch                   13 # Coalescing arch (default = 13, anything else is off for now)
-gpgpu_num_sched_per_core                    2 # Number of warp schedulers per core
-gpgpu_max_insn_issue_per_warp                    1 # Max number of instructions that can be issued per warp in one cycle by scheduler
-gpgpu_simt_core_sim_order                    1 # Select the simulation order of cores in a cluster (0=Fix, 1=Round-Robin)
-gpgpu_pipeline_widths        2,1,1,2,1,1,2 # Pipeline widths ID_OC_SP,ID_OC_SFU,ID_OC_MEM,OC_EX_SP,OC_EX_SFU,OC_EX_MEM,EX_WB
-gpgpu_num_sp_units                     2 # Number of SP units (default=1)
-gpgpu_num_sfu_units                    1 # Number of SF units (default=1)
-gpgpu_num_mem_units                    1 # Number if ldst units (default=1) WARNING: not hooked up to anything
-gpgpu_scheduler                      gto # Scheduler configuration: < lrr | gto | two_level_active > If two_level_active:<num_active_warps>:<inner_prioritization>:<outer_prioritization>For complete list of prioritization values see shader.h enum scheduler_prioritization_typeDefault: gto
-gpgpu_dram_scheduler                    1 # 0 = fifo, 1 = FR-FCFS (defaul)
-gpgpu_dram_partition_queues              8:8:8:8 # i2$:$2d:d2$:$2i
-l2_ideal                               0 # Use a ideal L2 cache that always hit
-gpgpu_cache:dl2     64:128:8,L:B:m:W:L,A:32:4,4:0,32 # unified banked L2 data cache config  {<nsets>:<bsize>:<assoc>,<rep>:<wr>:<alloc>:<wr_alloc>,<mshr>:<N>:<merge>,<mq>}
-gpgpu_cache:dl2_texture_only                    0 # L2 cache used for texture only
-gpgpu_n_mem                            6 # number of memory modules (e.g. memory controllers) in gpu
-gpgpu_n_sub_partition_per_mchannel                    2 # number of memory subpartition in each memory module
-gpgpu_n_mem_per_ctrlr                    2 # number of memory chips per memory controller
-gpgpu_memlatency_stat                   14 # track and display latency statistics 0x2 enables MC, 0x4 enables queue logs
-gpgpu_frfcfs_dram_sched_queue_size                   16 # 0 = unlimited (default); # entries per chip
-gpgpu_dram_return_queue_size                  116 # 0 = unlimited (default); # entries per chip
-gpgpu_dram_buswidth                    4 # default = 4 bytes (8 bytes per cycle at DDR)
-gpgpu_dram_burst_length                    8 # Burst length of each DRAM request (default = 4 data bus cycle)
-dram_data_command_freq_ratio                    4 # Frequency ratio between DRAM data bus and command bus (default = 2 times, i.e. DDR)
-gpgpu_dram_timing_opt nbk=16:CCD=2:RRD=6:RCD=12:RAS=28:RP=12:RC=40: CL=12:WL=4:CDLR=5:WR=12:nbkgrp=4:CCDL=3:RTPL=2 # DRAM timing parameters = {nbk:tCCD:tRRD:tRCD:tRAS:tRP:tRC:CL:WL:tCDLR:tWR:nbkgrp:tCCDL:tRTPL}
-rop_latency                          120 # ROP queue latency (default 85)
-dram_latency                         100 # DRAM latency (default 30)
-gpgpu_mem_addr_mapping dramid@8;00000000.00000000.00000000.00000000.0000RRRR.RRRRRRRR.BBBCCCCB.CCSSSSSS # mapping memory address to dram model {dramid@<start bit>;<memory address map>}
-gpgpu_mem_addr_test                    0 # run sweep test to check address mapping for aliased address
-gpgpu_mem_address_mask                    1 # 0 = old addressing mask, 1 = new addressing mask, 2 = new add. mask + flipped bank sel and chip sel bits
-gpuwattch_xml_file  gpuwattch_gtx480.xml # GPUWattch XML file
-power_simulation_enabled                    1 # Turn on power simulator (1=On, 0=Off)
-power_per_cycle_dump                    0 # Dump detailed power output each cycle
-power_trace_enabled                    0 # produce a file for the power trace (1=On, 0=Off)
-power_trace_zlevel                     6 # Compression level of the power trace output log (0=no comp, 9=highest)
-steady_power_levels_enabled                    0 # produce a file for the steady power levels (1=On, 0=Off)
-steady_state_definition                  8:4 # allowed deviation:number of samples
-gpgpu_max_cycle                        0 # terminates gpu simulation early (0 = no limit)
-gpgpu_max_insn                         0 # terminates gpu simulation early (0 = no limit)
-gpgpu_max_cta                          0 # terminates gpu simulation early (0 = no limit)
-gpgpu_runtime_stat                   500 # display runtime statistics such as dram utilization {<freq>:<flag>}
-liveness_message_freq                    1 # Minimum number of seconds between simulation liveness messages (0 = always print)
-gpgpu_flush_l1_cache                    0 # Flush L1 cache at the end of each kernel call
-gpgpu_flush_l2_cache                    0 # Flush L2 cache at the end of each kernel call
-gpgpu_deadlock_detect                    1 # Stop the simulation at deadlock (1=on (default), 0=off)
-gpgpu_ptx_instruction_classification                    0 # if enabled will classify ptx instruction types per kernel (Max 255 kernels now)
-gpgpu_ptx_sim_mode                     0 # Select between Performance (default) or Functional simulation (1)
-gpgpu_clock_domains 700.0:700.0:700.0:924.0 # Clock Domain Frequencies in MhZ {<Core Clock>:<ICNT Clock>:<L2 Clock>:<DRAM Clock>}
-gpgpu_max_concurrent_kernel                    8 # maximum kernels that can run concurrently on GPU
-gpgpu_cflog_interval                    0 # Interval between each snapshot in control flow logger
-visualizer_enabled                     0 # Turn on visualizer output (1=On, 0=Off)
-visualizer_outputfile                 NULL # Specifies the output log file for visualizer
-visualizer_zlevel                      6 # Compression level of the visualizer output log (0=no comp, 9=highest)
-trace_enabled                          0 # Turn on traces
-trace_components                    none # comma seperated list of traces to enable. Complete list found in trace_streams.tup. Default none
-trace_sampling_core                    0 # The core which is printed using CORE_DPRINTF. Default 0
-trace_sampling_memory_partition                   -1 # The memory partition which is printed using MEMPART_DPRINTF. Default -1 (i.e. all)
-enable_ptx_file_line_stats                    1 # Turn on PTX source line statistic profiling. (1 = On)
-ptx_line_stats_filename gpgpu_inst_stats.txt # Output file for PTX source line statistics.
-save_embedded_ptx                      0 # saves ptx files embedded in binary as <n>.ptx
-keep                                   0 # keep intermediate files created by GPGPU-Sim when interfacing with external programs
-gpgpu_ptx_save_converted_ptxplus                    0 # Saved converted ptxplus to a file
-ptx_opcode_latency_int         4,13,4,5,145 # Opcode latencies for integers <ADD,MAX,MUL,MAD,DIV>Default 1,1,19,25,145
-ptx_opcode_latency_fp          4,13,4,5,39 # Opcode latencies for single precision floating points <ADD,MAX,MUL,MAD,DIV>Default 1,1,1,1,30
-ptx_opcode_latency_dp         8,19,8,8,330 # Opcode latencies for double precision floating points <ADD,MAX,MUL,MAD,DIV>Default 8,8,8,8,335
-ptx_opcode_initiation_int            1,2,2,1,8 # Opcode initiation intervals for integers <ADD,MAX,MUL,MAD,DIV>Default 1,1,4,4,32
-ptx_opcode_initiation_fp            1,2,1,1,4 # Opcode initiation intervals for single precision floating points <ADD,MAX,MUL,MAD,DIV>Default 1,1,1,1,5
-ptx_opcode_initiation_dp         8,16,8,8,130 # Opcode initiation intervals for double precision floating points <ADD,MAX,MUL,MAD,DIV>Default 8,8,8,8,130
DRAM Timing Options:
nbk                                    16 # number of banks
CCD                                     2 # column to column delay
RRD                                     6 # minimal delay between activation of rows in different banks
RCD                                    12 # row to column delay
RAS                                    28 # time needed to activate row
RP                                     12 # time needed to precharge (deactivate) row
RC                                     40 # row cycle time
CDLR                                    5 # switching from write to read (changes tWTR)
WR                                     12 # last data-in to row precharge
CL                                     12 # CAS latency
WL                                      4 # Write latency
nbkgrp                                  4 # number of bank groups
CCDL                                    3 # column to column delay between accesses to different bank groups
RTPL                                    2 # read to precharge delay between accesses to different bank groups
Total number of memory sub partition = 12
addr_dec_mask[CHIP]  = 0000000000000000 	high:64 low:0
addr_dec_mask[BK]    = 000000000000e100 	high:16 low:8
addr_dec_mask[ROW]   = 000000000fff0000 	high:28 low:16
addr_dec_mask[COL]   = 0000000000001eff 	high:13 low:0
addr_dec_mask[BURST] = 000000000000003f 	high:6 low:0
sub_partition_id_mask = 0000000000000100
GPGPU-Sim uArch: clock freqs: 700000000.000000:700000000.000000:700000000.000000:924000000.000000
GPGPU-Sim uArch: clock periods: 0.00000000142857142857:0.00000000142857142857:0.00000000142857142857:0.00000000108225108225
*** Initializing Memory Statistics ***
GPGPU-Sim uArch: interconnect node map (shaderID+MemID to icntID)
GPGPU-Sim uArch: Memory nodes ID start from index: 15
GPGPU-Sim uArch:    0   1   2   3   4
GPGPU-Sim uArch:    5   6   7   8   9
GPGPU-Sim uArch:   10  11  12  13  14
GPGPU-Sim uArch:   15  16  17  18  19
GPGPU-Sim uArch:   20  21  22  23  24
GPGPU-Sim uArch:   25  26
GPGPU-Sim uArch: interconnect node reverse map (icntID to shaderID+MemID)
GPGPU-Sim uArch: Memory nodes start from ID: 15
GPGPU-Sim uArch:    0   1   2   3   4
GPGPU-Sim uArch:    5   6   7   8   9
GPGPU-Sim uArch:   10  11  12  13  14
GPGPU-Sim uArch:   15  16  17  18  19
GPGPU-Sim uArch:   20  21  22  23  24
GPGPU-Sim uArch:   25  26
ae640c8759f48e4e8e9ec798b93ef572  /home/min/a/gupta286/ece695_ftc/gpgpusim-workloads/matrixMulOpt/matrixMul_packed
GPGPU-Sim uArch: performance model initialization complete.
GPGPU-Sim PTX: __cudaRegisterFatBinary, fat_cubin_handle = 1, filename=matrixMul_packed.cu
self exe links to: /home/min/a/gupta286/ece695_ftc/gpgpusim-workloads/matrixMulOpt/matrixMul_packed
Running md5sum using "md5sum /home/min/a/gupta286/ece695_ftc/gpgpusim-workloads/matrixMulOpt/matrixMul_packed "
Running cuobjdump using "$CUDA_INSTALL_PATH/bin/cuobjdump -ptx -elf -sass /home/min/a/gupta286/ece695_ftc/gpgpusim-workloads/matrixMulOpt/matrixMul_packed > _cuobjdump_complete_output_c756Dd"
Parsing file _cuobjdump_complete_output_c756Dd
######### cuobjdump parser ########
## Adding new section ELF
Adding arch: sm_20
Adding identifier: matrixMul_packed.cu
## Adding new section PTX
Adding ptx filename: _cuobjdump_1.ptx
Adding arch: sm_20
Adding identifier: matrixMul_packed.cu
Done parsing!!!
GPGPU-Sim PTX: __cudaRegisterFunction _Z12matrixMulGPUPjS_Pii : hostFun 0x0x401225, fat_cubin_handle = 1
DEBUG File name parsing 2 = test.ptx
GPGPU-Sim PTX: overriding embedded ptx with 'test.ptx' (PTX_SIM_USE_PTX_FILE is set)
GPGPU-Sim PTX: allocating shared region for "__cuda_local_var_16200_47_non_const_As" from 0x0 to 0x100 (shared memory space)
GPGPU-Sim PTX: allocating shared region for "__cuda_local_var_16204_47_non_const_Bs" from 0x100 to 0x200 (shared memory space)
GPGPU-Sim PTX: instruction assembly for function '_Z12matrixMulGPUPjS_Pii'...   done.
GPGPU-Sim PTX: finding reconvergence points for '_Z12matrixMulGPUPjS_Pii'...
GPGPU-Sim PTX: Finding dominators for '_Z12matrixMulGPUPjS_Pii'...
GPGPU-Sim PTX: Finding immediate dominators for '_Z12matrixMulGPUPjS_Pii'...
GPGPU-Sim PTX: Finding postdominators for '_Z12matrixMulGPUPjS_Pii'...
GPGPU-Sim PTX: Finding immediate postdominators for '_Z12matrixMulGPUPjS_Pii'...
GPGPU-Sim PTX: pre-decoding instructions for '_Z12matrixMulGPUPjS_Pii'...
GPGPU-Sim PTX: reconvergence points for _Z12matrixMulGPUPjS_Pii...
GPGPU-Sim PTX:  1 (potential) branch divergence @  PC=0x070 (_1.ptx:52) @%p2 bra BB0_5;
GPGPU-Sim PTX:    immediate post dominator      @  PC=0x218 (_1.ptx:130) mov.u32 %r69, %ctaid.y;
GPGPU-Sim PTX:  2 (potential) branch divergence @  PC=0x0f0 (_1.ptx:76) @!%p1 bra BB0_4;
GPGPU-Sim PTX:    immediate post dominator      @  PC=0x178 (_1.ptx:101) bar.sync 0;
GPGPU-Sim PTX:  3 (potential) branch divergence @  PC=0x200 (_1.ptx:122) @%p3 bra BB0_2;
GPGPU-Sim PTX:    immediate post dominator      @  PC=0x208 (_1.ptx:123) bra.uni BB0_6;
GPGPU-Sim PTX:  4 (potential) branch divergence @  PC=0x208 (_1.ptx:123) bra.uni BB0_6;
GPGPU-Sim PTX:    immediate post dominator      @  PC=0x218 (_1.ptx:130) mov.u32 %r69, %ctaid.y;
GPGPU-Sim PTX: ... end of reconvergence points for _Z12matrixMulGPUPjS_Pii
GPGPU-Sim PTX: ... done pre-decoding instructions for '_Z12matrixMulGPUPjS_Pii'.
GPGPU-Sim PTX: finished parsing EMBEDDED .ptx file _1.ptx
Adding _cuobjdump_1.ptx with cubin handle 1
GPGPU-Sim PTX: extracting embedded .ptx to temporary file "_ptx_xBt2Y9"
Running: cat _ptx_xBt2Y9 | sed 's/.version 1.5/.version 1.4/' | sed '/addk_k/d' | sed 's/_quadi//' | sed 's/, texmode_independent//' | sed 's/\(\.extern \.const\[1\] .b8 \w\+\)\[\]/\1\[1\]/' | sed 's/const\[.\]/const\[0\]/g' > _ptx2_w2qKn6
GPGPU-Sim PTX: generating ptxinfo using "$CUDA_INSTALL_PATH/bin/ptxas --gpu-name=sm_20 -v _ptx2_w2qKn6 --output-file  /dev/null 2> _ptx_xBt2Y9info"
GPGPU-Sim PTX: Kernel '_Z12matrixMulGPUPjS_Pii' : regs=19, lmem=0, smem=512, cmem=60
GPGPU-Sim PTX: removing ptxinfo using "rm -f _ptx_xBt2Y9 _ptx2_w2qKn6 _ptx_xBt2Y9info"
GPGPU-Sim PTX: loading globals with explicit initializers... 
GPGPU-Sim PTX: finished loading globals (0 bytes total).
GPGPU-Sim PTX: loading constants with explicit initializers...  done.

GPGPU-Sim PTX: cudaLaunch for 0x0x401225 (mode=performance simulation) on stream 0
GPGPU-Sim PTX: pushing kernel '_Z12matrixMulGPUPjS_Pii' to stream 0, gridDim= (32,32,1) blockDim = (16,16,1) 
kernel '_Z12matrixMulGPUPjS_Pii' transfer to GPU hardware scheduler
GPGPU-Sim uArch: Shader 1 bind to kernel 1 '_Z12matrixMulGPUPjS_Pii'
GPGPU-Sim uArch: CTA/core = 6, limited by: threads regs
GPGPU-Sim uArch: core:  1, cta: 0 initialized @(1,0)
GPGPU-Sim uArch: Shader 2 bind to kernel 1 '_Z12matrixMulGPUPjS_Pii'
GPGPU-Sim uArch: core:  2, cta: 0 initialized @(1,0)
GPGPU-Sim uArch: Shader 3 bind to kernel 1 '_Z12matrixMulGPUPjS_Pii'
GPGPU-Sim uArch: core:  3, cta: 0 initialized @(1,0)
GPGPU-Sim uArch: Shader 4 bind to kernel 1 '_Z12matrixMulGPUPjS_Pii'
GPGPU-Sim uArch: core:  4, cta: 0 initialized @(1,0)
GPGPU-Sim uArch: Shader 5 bind to kernel 1 '_Z12matrixMulGPUPjS_Pii'
GPGPU-Sim uArch: core:  5, cta: 0 initialized @(1,0)
GPGPU-Sim uArch: Shader 6 bind to kernel 1 '_Z12matrixMulGPUPjS_Pii'
GPGPU-Sim uArch: core:  6, cta: 0 initialized @(1,0)
GPGPU-Sim uArch: Shader 7 bind to kernel 1 '_Z12matrixMulGPUPjS_Pii'
GPGPU-Sim uArch: core:  7, cta: 0 initialized @(1,0)
GPGPU-Sim uArch: Shader 8 bind to kernel 1 '_Z12matrixMulGPUPjS_Pii'
GPGPU-Sim uArch: core:  8, cta: 0 initialized @(1,0)
GPGPU-Sim uArch: Shader 9 bind to kernel 1 '_Z12matrixMulGPUPjS_Pii'
GPGPU-Sim uArch: core:  9, cta: 0 initialized @(1,0)
GPGPU-Sim uArch: Shader 10 bind to kernel 1 '_Z12matrixMulGPUPjS_Pii'
GPGPU-Sim uArch: core: 10, cta: 0 initialized @(1,0)
GPGPU-Sim uArch: Shader 11 bind to kernel 1 '_Z12matrixMulGPUPjS_Pii'
GPGPU-Sim uArch: core: 11, cta: 0 initialized @(1,0)
GPGPU-Sim uArch: Shader 12 bind to kernel 1 '_Z12matrixMulGPUPjS_Pii'
GPGPU-Sim uArch: core: 12, cta: 0 initialized @(1,0)
GPGPU-Sim uArch: Shader 13 bind to kernel 1 '_Z12matrixMulGPUPjS_Pii'
GPGPU-Sim uArch: core: 13, cta: 0 initialized @(1,0)
GPGPU-Sim uArch: Shader 14 bind to kernel 1 '_Z12matrixMulGPUPjS_Pii'
GPGPU-Sim uArch: core: 14, cta: 0 initialized @(1,0)
GPGPU-Sim uArch: Shader 0 bind to kernel 1 '_Z12matrixMulGPUPjS_Pii'
GPGPU-Sim uArch: core:  0, cta: 0 initialized @(1,0)
GPGPU-Sim uArch: core:  1, cta: 1 initialized @(2,0)
GPGPU-Sim uArch: core:  2, cta: 1 initialized @(2,0)
GPGPU-Sim uArch: core:  3, cta: 1 initialized @(2,0)
GPGPU-Sim uArch: core:  4, cta: 1 initialized @(2,0)
GPGPU-Sim uArch: core:  5, cta: 1 initialized @(2,0)
GPGPU-Sim uArch: core:  6, cta: 1 initialized @(2,0)
GPGPU-Sim uArch: core:  7, cta: 1 initialized @(2,0)
GPGPU-Sim uArch: core:  8, cta: 1 initialized @(2,0)
GPGPU-Sim uArch: core:  9, cta: 1 initialized @(2,0)
GPGPU-Sim uArch: core: 10, cta: 1 initialized @(2,0)
GPGPU-Sim uArch: core: 11, cta: 1 initialized @(2,0)
GPGPU-Sim uArch: core: 12, cta: 1 initialized @(2,0)
GPGPU-Sim uArch: core: 13, cta: 1 initialized @(2,0)
GPGPU-Sim uArch: core: 14, cta: 1 initialized @(2,0)
GPGPU-Sim uArch: core:  0, cta: 1 initialized @(2,0)
GPGPU-Sim uArch: core:  1, cta: 2 initialized @(3,0)
GPGPU-Sim uArch: core:  2, cta: 2 initialized @(3,0)
GPGPU-Sim uArch: core:  3, cta: 2 initialized @(3,0)
GPGPU-Sim uArch: core:  4, cta: 2 initialized @(3,0)
GPGPU-Sim uArch: core:  5, cta: 2 initialized @(3,0)
GPGPU-Sim uArch: core:  6, cta: 2 initialized @(3,0)
GPGPU-Sim uArch: core:  7, cta: 2 initialized @(3,0)
GPGPU-Sim uArch: core:  8, cta: 2 initialized @(3,0)
GPGPU-Sim uArch: core:  9, cta: 2 initialized @(3,0)
GPGPU-Sim uArch: core: 10, cta: 2 initialized @(3,0)
GPGPU-Sim uArch: core: 11, cta: 2 initialized @(3,0)
GPGPU-Sim uArch: core: 12, cta: 2 initialized @(3,0)
GPGPU-Sim uArch: core: 13, cta: 2 initialized @(3,0)
GPGPU-Sim uArch: core: 14, cta: 2 initialized @(3,0)
GPGPU-Sim uArch: core:  0, cta: 2 initialized @(3,0)
GPGPU-Sim uArch: core:  1, cta: 3 initialized @(4,0)
GPGPU-Sim uArch: core:  2, cta: 3 initialized @(4,0)
GPGPU-Sim uArch: core:  3, cta: 3 initialized @(4,0)
GPGPU-Sim uArch: core:  4, cta: 3 initialized @(4,0)
GPGPU-Sim uArch: core:  5, cta: 3 initialized @(4,0)
GPGPU-Sim uArch: core:  6, cta: 3 initialized @(4,0)
GPGPU-Sim uArch: core:  7, cta: 3 initialized @(4,0)
GPGPU-Sim uArch: core:  8, cta: 3 initialized @(4,0)
GPGPU-Sim uArch: core:  9, cta: 3 initialized @(4,0)
GPGPU-Sim uArch: core: 10, cta: 3 initialized @(4,0)
GPGPU-Sim uArch: core: 11, cta: 3 initialized @(4,0)
GPGPU-Sim uArch: core: 12, cta: 3 initialized @(4,0)
GPGPU-Sim uArch: core: 13, cta: 3 initialized @(4,0)
GPGPU-Sim uArch: core: 14, cta: 3 initialized @(4,0)
GPGPU-Sim uArch: core:  0, cta: 3 initialized @(4,0)
GPGPU-Sim uArch: core:  1, cta: 4 initialized @(5,0)
GPGPU-Sim uArch: core:  2, cta: 4 initialized @(5,0)
GPGPU-Sim uArch: core:  3, cta: 4 initialized @(5,0)
GPGPU-Sim uArch: core:  4, cta: 4 initialized @(5,0)
GPGPU-Sim uArch: core:  5, cta: 4 initialized @(5,0)
GPGPU-Sim uArch: core:  6, cta: 4 initialized @(5,0)
GPGPU-Sim uArch: core:  7, cta: 4 initialized @(5,0)
GPGPU-Sim uArch: core:  8, cta: 4 initialized @(5,0)
GPGPU-Sim uArch: core:  9, cta: 4 initialized @(5,0)
GPGPU-Sim uArch: core: 10, cta: 4 initialized @(5,0)
GPGPU-Sim uArch: core: 11, cta: 4 initialized @(5,0)
GPGPU-Sim uArch: core: 12, cta: 4 initialized @(5,0)
GPGPU-Sim uArch: core: 13, cta: 4 initialized @(5,0)
GPGPU-Sim uArch: core: 14, cta: 4 initialized @(5,0)
GPGPU-Sim uArch: core:  0, cta: 4 initialized @(5,0)
GPGPU-Sim uArch: core:  1, cta: 5 initialized @(6,0)
GPGPU-Sim uArch: core:  2, cta: 5 initialized @(6,0)
GPGPU-Sim uArch: core:  3, cta: 5 initialized @(6,0)
GPGPU-Sim uArch: core:  4, cta: 5 initialized @(6,0)
GPGPU-Sim uArch: core:  5, cta: 5 initialized @(6,0)
GPGPU-Sim uArch: core:  6, cta: 5 initialized @(6,0)
GPGPU-Sim uArch: core:  7, cta: 5 initialized @(6,0)
GPGPU-Sim uArch: core:  8, cta: 5 initialized @(6,0)
GPGPU-Sim uArch: core:  9, cta: 5 initialized @(6,0)
GPGPU-Sim uArch: core: 10, cta: 5 initialized @(6,0)
GPGPU-Sim uArch: core: 11, cta: 5 initialized @(6,0)
GPGPU-Sim uArch: core: 12, cta: 5 initialized @(6,0)
GPGPU-Sim uArch: core: 13, cta: 5 initialized @(6,0)
GPGPU-Sim uArch: core: 14, cta: 5 initialized @(6,0)
GPGPU-Sim uArch: core:  0, cta: 5 initialized @(6,0)
GPGPU-Sim uArch: cycles simulated: 500  inst.: 17760 (ipc=35.5) sim_rate=17760 (inst/sec) elapsed = 0:0:00:01 / Fri Dec 16 03:13:38 2016
GPGPU-Sim PTX: 100000 instructions simulated : ctaid=(12,0,0) tid=(15,7,0)
GPGPU-Sim PTX: 200000 instructions simulated : ctaid=(15,1,0) tid=(15,3,0)
GPGPU-Sim PTX: 300000 instructions simulated : ctaid=(26,1,0) tid=(15,13,0)
GPGPU-Sim PTX: 400000 instructions simulated : ctaid=(24,0,0) tid=(15,15,0)
GPGPU-Sim PTX: 500000 instructions simulated : ctaid=(0,0,0) tid=(15,11,0)
GPGPU-Sim PTX: 600000 instructions simulated : ctaid=(5,1,0) tid=(15,11,0)
GPGPU-Sim PTX: 700000 instructions simulated : ctaid=(24,1,0) tid=(15,15,0)
GPGPU-Sim uArch: cycles simulated: 2000  inst.: 724672 (ipc=362.3) sim_rate=362336 (inst/sec) elapsed = 0:0:00:02 / Fri Dec 16 03:13:40 2016
GPGPU-Sim PTX: 800000 instructions simulated : ctaid=(14,2,0) tid=(3,13,0)
GPGPU-Sim PTX: 900000 instructions simulated : ctaid=(22,0,0) tid=(7,13,0)
GPGPU-Sim uArch: cycles simulated: 4000  inst.: 938208 (ipc=234.6) sim_rate=312736 (inst/sec) elapsed = 0:0:00:03 / Fri Dec 16 03:13:41 2016
GPGPU-Sim PTX: 1000000 instructions simulated : ctaid=(28,0,0) tid=(15,13,0)
GPGPU-Sim PTX: 1100000 instructions simulated : ctaid=(10,1,0) tid=(15,8,0)
GPGPU-Sim PTX: 1200000 instructions simulated : ctaid=(7,0,0) tid=(15,6,0)
GPGPU-Sim PTX: 1300000 instructions simulated : ctaid=(7,1,0) tid=(15,7,0)
GPGPU-Sim uArch: cycles simulated: 5000  inst.: 1306104 (ipc=261.2) sim_rate=326526 (inst/sec) elapsed = 0:0:00:04 / Fri Dec 16 03:13:42 2016
GPGPU-Sim PTX: 1400000 instructions simulated : ctaid=(1,0,0) tid=(7,3,0)
GPGPU-Sim PTX: 1500000 instructions simulated : ctaid=(0,0,0) tid=(15,13,0)
GPGPU-Sim PTX: 1600000 instructions simulated : ctaid=(14,0,0) tid=(15,6,0)
GPGPU-Sim PTX: 1700000 instructions simulated : ctaid=(3,0,0) tid=(15,9,0)
GPGPU-Sim PTX: 1800000 instructions simulated : ctaid=(4,0,0) tid=(3,5,0)
GPGPU-Sim PTX: 1900000 instructions simulated : ctaid=(1,1,0) tid=(15,15,0)
GPGPU-Sim PTX: 2000000 instructions simulated : ctaid=(16,0,0) tid=(7,4,0)
GPGPU-Sim uArch: cycles simulated: 6500  inst.: 1961448 (ipc=301.8) sim_rate=392289 (inst/sec) elapsed = 0:0:00:05 / Fri Dec 16 03:13:43 2016
GPGPU-Sim PTX: 2100000 instructions simulated : ctaid=(13,0,0) tid=(7,13,0)
GPGPU-Sim PTX: 2200000 instructions simulated : ctaid=(3,2,0) tid=(7,1,0)
GPGPU-Sim PTX: 2300000 instructions simulated : ctaid=(31,0,0) tid=(15,4,0)
GPGPU-Sim PTX: 2400000 instructions simulated : ctaid=(17,0,0) tid=(7,12,0)
GPGPU-Sim uArch: cycles simulated: 7500  inst.: 2401616 (ipc=320.2) sim_rate=400269 (inst/sec) elapsed = 0:0:00:06 / Fri Dec 16 03:13:44 2016
GPGPU-Sim PTX: 2500000 instructions simulated : ctaid=(15,0,0) tid=(3,1,0)
GPGPU-Sim PTX: 2600000 instructions simulated : ctaid=(6,0,0) tid=(15,7,0)
GPGPU-Sim PTX: 2700000 instructions simulated : ctaid=(7,1,0) tid=(3,7,0)
GPGPU-Sim PTX: 2800000 instructions simulated : ctaid=(1,1,0) tid=(7,6,0)
GPGPU-Sim uArch: cycles simulated: 8500  inst.: 2778792 (ipc=326.9) sim_rate=396970 (inst/sec) elapsed = 0:0:00:07 / Fri Dec 16 03:13:45 2016
GPGPU-Sim PTX: 2900000 instructions simulated : ctaid=(6,1,0) tid=(7,12,0)
GPGPU-Sim PTX: 3000000 instructions simulated : ctaid=(27,0,0) tid=(3,13,0)
GPGPU-Sim PTX: 3100000 instructions simulated : ctaid=(5,1,0) tid=(7,11,0)
GPGPU-Sim PTX: 3200000 instructions simulated : ctaid=(8,1,0) tid=(15,8,0)
GPGPU-Sim PTX: 3300000 instructions simulated : ctaid=(15,0,0) tid=(7,4,0)
GPGPU-Sim uArch: cycles simulated: 10000  inst.: 3317440 (ipc=331.7) sim_rate=414680 (inst/sec) elapsed = 0:0:00:08 / Fri Dec 16 03:13:46 2016
GPGPU-Sim PTX: 3400000 instructions simulated : ctaid=(17,0,0) tid=(15,12,0)
GPGPU-Sim PTX: 3500000 instructions simulated : ctaid=(2,0,0) tid=(7,7,0)
GPGPU-Sim PTX: 3600000 instructions simulated : ctaid=(7,1,0) tid=(15,9,0)
GPGPU-Sim PTX: 3700000 instructions simulated : ctaid=(20,1,0) tid=(3,1,0)
GPGPU-Sim uArch: cycles simulated: 11000  inst.: 3666288 (ipc=333.3) sim_rate=407365 (inst/sec) elapsed = 0:0:00:09 / Fri Dec 16 03:13:47 2016
GPGPU-Sim PTX: 3800000 instructions simulated : ctaid=(29,0,0) tid=(7,1,0)
GPGPU-Sim PTX: 3900000 instructions simulated : ctaid=(20,0,0) tid=(3,9,0)
GPGPU-Sim PTX: 4000000 instructions simulated : ctaid=(16,0,0) tid=(7,7,0)
GPGPU-Sim uArch: cycles simulated: 12000  inst.: 4019448 (ipc=335.0) sim_rate=401944 (inst/sec) elapsed = 0:0:00:10 / Fri Dec 16 03:13:48 2016
GPGPU-Sim PTX: 4100000 instructions simulated : ctaid=(17,1,0) tid=(15,13,0)
GPGPU-Sim PTX: 4200000 instructions simulated : ctaid=(2,0,0) tid=(7,4,0)
GPGPU-Sim PTX: 4300000 instructions simulated : ctaid=(21,0,0) tid=(7,1,0)
GPGPU-Sim PTX: 4400000 instructions simulated : ctaid=(16,0,0) tid=(15,0,0)
GPGPU-Sim PTX: 4500000 instructions simulated : ctaid=(5,0,0) tid=(7,14,0)
GPGPU-Sim PTX: 4600000 instructions simulated : ctaid=(28,0,0) tid=(15,15,0)
GPGPU-Sim uArch: cycles simulated: 13500  inst.: 4531976 (ipc=335.7) sim_rate=411997 (inst/sec) elapsed = 0:0:00:11 / Fri Dec 16 03:13:49 2016
GPGPU-Sim PTX: 4700000 instructions simulated : ctaid=(26,0,0) tid=(3,9,0)
GPGPU-Sim PTX: 4800000 instructions simulated : ctaid=(25,1,0) tid=(15,2,0)
GPGPU-Sim PTX: 4900000 instructions simulated : ctaid=(21,1,0) tid=(7,8,0)
GPGPU-Sim uArch: cycles simulated: 14500  inst.: 4890456 (ipc=337.3) sim_rate=407538 (inst/sec) elapsed = 0:0:00:12 / Fri Dec 16 03:13:50 2016
GPGPU-Sim PTX: 5000000 instructions simulated : ctaid=(28,0,0) tid=(15,13,0)
GPGPU-Sim PTX: 5100000 instructions simulated : ctaid=(25,0,0) tid=(15,2,0)
GPGPU-Sim PTX: 5200000 instructions simulated : ctaid=(1,1,0) tid=(3,1,0)
GPGPU-Sim PTX: 5300000 instructions simulated : ctaid=(26,0,0) tid=(7,15,0)
GPGPU-Sim PTX: 5400000 instructions simulated : ctaid=(9,2,0) tid=(15,7,0)
GPGPU-Sim uArch: cycles simulated: 16000  inst.: 5412856 (ipc=338.3) sim_rate=416373 (inst/sec) elapsed = 0:0:00:13 / Fri Dec 16 03:13:51 2016
GPGPU-Sim PTX: 5500000 instructions simulated : ctaid=(30,0,0) tid=(7,4,0)
GPGPU-Sim PTX: 5600000 instructions simulated : ctaid=(21,0,0) tid=(15,9,0)
GPGPU-Sim PTX: 5700000 instructions simulated : ctaid=(12,0,0) tid=(7,0,0)
GPGPU-Sim PTX: 5800000 instructions simulated : ctaid=(7,0,0) tid=(15,1,0)
GPGPU-Sim uArch: cycles simulated: 17000  inst.: 5763712 (ipc=339.0) sim_rate=411693 (inst/sec) elapsed = 0:0:00:14 / Fri Dec 16 03:13:52 2016
GPGPU-Sim PTX: 5900000 instructions simulated : ctaid=(10,2,0) tid=(7,5,0)
GPGPU-Sim PTX: 6000000 instructions simulated : ctaid=(8,1,0) tid=(3,3,0)
GPGPU-Sim PTX: 6100000 instructions simulated : ctaid=(9,0,0) tid=(3,15,0)
GPGPU-Sim PTX: 6200000 instructions simulated : ctaid=(11,1,0) tid=(7,14,0)
GPGPU-Sim PTX: 6300000 instructions simulated : ctaid=(0,0,0) tid=(3,15,0)
GPGPU-Sim PTX: 6400000 instructions simulated : ctaid=(26,0,0) tid=(7,5,0)
GPGPU-Sim uArch: cycles simulated: 18500  inst.: 6386352 (ipc=345.2) sim_rate=425756 (inst/sec) elapsed = 0:0:00:15 / Fri Dec 16 03:13:53 2016
GPGPU-Sim PTX: 6500000 instructions simulated : ctaid=(4,1,0) tid=(15,3,0)
GPGPU-Sim PTX: 6600000 instructions simulated : ctaid=(3,0,0) tid=(7,15,0)
GPGPU-Sim PTX: 6700000 instructions simulated : ctaid=(10,0,0) tid=(7,5,0)
GPGPU-Sim PTX: 6800000 instructions simulated : ctaid=(31,0,0) tid=(15,15,0)
GPGPU-Sim uArch: cycles simulated: 19500  inst.: 6785224 (ipc=348.0) sim_rate=424076 (inst/sec) elapsed = 0:0:00:16 / Fri Dec 16 03:13:54 2016
GPGPU-Sim PTX: 6900000 instructions simulated : ctaid=(1,1,0) tid=(7,12,0)
GPGPU-Sim PTX: 7000000 instructions simulated : ctaid=(27,1,0) tid=(3,9,0)
GPGPU-Sim uArch: Shader 3 finished CTA #0 (19999,0), 5 CTAs running
GPGPU-Sim uArch: core:  3, cta: 0 initialized @(20000,0)
GPGPU-Sim PTX: 7100000 instructions simulated : ctaid=(12,0,0) tid=(3,3,0)
GPGPU-Sim uArch: Shader 11 finished CTA #0 (20030,0), 5 CTAs running
GPGPU-Sim uArch: core: 11, cta: 0 initialized @(20031,0)
GPGPU-Sim PTX: 7200000 instructions simulated : ctaid=(17,0,0) tid=(7,14,0)
GPGPU-Sim PTX: 7300000 instructions simulated : ctaid=(5,1,0) tid=(7,14,0)
GPGPU-Sim uArch: cycles simulated: 20500  inst.: 7206176 (ipc=351.5) sim_rate=423892 (inst/sec) elapsed = 0:0:00:17 / Fri Dec 16 03:13:55 2016
GPGPU-Sim uArch: Shader 7 finished CTA #0 (20529,0), 5 CTAs running
GPGPU-Sim uArch: core:  7, cta: 0 initialized @(20530,0)
GPGPU-Sim PTX: 7400000 instructions simulated : ctaid=(3,0,0) tid=(7,7,0)
GPGPU-Sim PTX: 7500000 instructions simulated : ctaid=(5,1,0) tid=(7,0,0)
GPGPU-Sim PTX: 7600000 instructions simulated : ctaid=(29,0,0) tid=(7,13,0)
GPGPU-Sim PTX: 7700000 instructions simulated : ctaid=(29,0,0) tid=(7,4,0)
GPGPU-Sim uArch: cycles simulated: 21500  inst.: 7635808 (ipc=355.2) sim_rate=424211 (inst/sec) elapsed = 0:0:00:18 / Fri Dec 16 03:13:56 2016
GPGPU-Sim PTX: 7800000 instructions simulated : ctaid=(6,1,0) tid=(7,11,0)
GPGPU-Sim uArch: Shader 0 finished CTA #0 (21788,0), 5 CTAs running
GPGPU-Sim uArch: core:  0, cta: 0 initialized @(21789,0)
GPGPU-Sim PTX: 7900000 instructions simulated : ctaid=(11,0,0) tid=(15,13,0)
GPGPU-Sim PTX: 8000000 instructions simulated : ctaid=(7,2,0) tid=(3,3,0)
GPGPU-Sim PTX: 8100000 instructions simulated : ctaid=(19,1,0) tid=(7,15,0)
GPGPU-Sim uArch: Shader 12 finished CTA #0 (22554,0), 5 CTAs running
GPGPU-Sim uArch: core: 12, cta: 0 initialized @(22555,0)
GPGPU-Sim PTX: 8200000 instructions simulated : ctaid=(21,0,0) tid=(7,10,0)
GPGPU-Sim PTX: 8300000 instructions simulated : ctaid=(11,1,0) tid=(7,4,0)
GPGPU-Sim uArch: cycles simulated: 23000  inst.: 8210864 (ipc=357.0) sim_rate=432150 (inst/sec) elapsed = 0:0:00:19 / Fri Dec 16 03:13:57 2016
GPGPU-Sim PTX: 8400000 instructions simulated : ctaid=(1,1,0) tid=(15,7,0)
GPGPU-Sim PTX: 8500000 instructions simulated : ctaid=(25,0,0) tid=(15,1,0)
GPGPU-Sim PTX: 8600000 instructions simulated : ctaid=(1,0,0) tid=(7,8,0)
GPGPU-Sim uArch: Shader 4 finished CTA #0 (23835,0), 5 CTAs running
GPGPU-Sim uArch: core:  4, cta: 0 initialized @(23836,0)
GPGPU-Sim uArch: Shader 8 finished CTA #0 (23917,0), 5 CTAs running
GPGPU-Sim uArch: core:  8, cta: 0 initialized @(23918,0)
GPGPU-Sim uArch: cycles simulated: 24000  inst.: 8559744 (ipc=356.7) sim_rate=427987 (inst/sec) elapsed = 0:0:00:20 / Fri Dec 16 03:13:58 2016
GPGPU-Sim PTX: 8700000 instructions simulated : ctaid=(12,0,0) tid=(15,1,0)
GPGPU-Sim PTX: 8800000 instructions simulated : ctaid=(18,1,0) tid=(7,11,0)
GPGPU-Sim PTX: 8900000 instructions simulated : ctaid=(1,1,0) tid=(7,1,0)
GPGPU-Sim PTX: 9000000 instructions simulated : ctaid=(23,0,0) tid=(7,5,0)
GPGPU-Sim PTX: 9100000 instructions simulated : ctaid=(27,1,0) tid=(7,15,0)
GPGPU-Sim uArch: Shader 2 finished CTA #0 (25167,0), 5 CTAs running
GPGPU-Sim uArch: core:  2, cta: 0 initialized @(25168,0)
GPGPU-Sim PTX: 9200000 instructions simulated : ctaid=(15,1,0) tid=(7,2,0)
GPGPU-Sim uArch: cycles simulated: 25500  inst.: 9136592 (ipc=358.3) sim_rate=435075 (inst/sec) elapsed = 0:0:00:21 / Fri Dec 16 03:13:59 2016
GPGPU-Sim PTX: 9300000 instructions simulated : ctaid=(17,1,0) tid=(15,10,0)
GPGPU-Sim PTX: 9400000 instructions simulated : ctaid=(5,0,0) tid=(15,15,0)
GPGPU-Sim PTX: 9500000 instructions simulated : ctaid=(24,1,0) tid=(7,10,0)
GPGPU-Sim uArch: Shader 12 finished CTA #1 (26239,0), 5 CTAs running
GPGPU-Sim uArch: core: 12, cta: 1 initialized @(26240,0)
GPGPU-Sim PTX: 9600000 instructions simulated : ctaid=(19,0,0) tid=(7,11,0)
GPGPU-Sim uArch: Shader 1 finished CTA #0 (26331,0), 5 CTAs running
GPGPU-Sim uArch: core:  1, cta: 0 initialized @(26332,0)
GPGPU-Sim uArch: Shader 8 finished CTA #1 (26454,0), 5 CTAs running
GPGPU-Sim uArch: core:  8, cta: 1 initialized @(26455,0)
GPGPU-Sim uArch: cycles simulated: 26500  inst.: 9538064 (ipc=359.9) sim_rate=433548 (inst/sec) elapsed = 0:0:00:22 / Fri Dec 16 03:14:00 2016
GPGPU-Sim PTX: 9700000 instructions simulated : ctaid=(9,1,0) tid=(7,2,0)
GPGPU-Sim PTX: 9800000 instructions simulated : ctaid=(18,0,0) tid=(15,6,0)
GPGPU-Sim PTX: 9900000 instructions simulated : ctaid=(17,1,0) tid=(3,9,0)
GPGPU-Sim PTX: 10000000 instructions simulated : ctaid=(25,0,0) tid=(3,9,0)
GPGPU-Sim uArch: Shader 4 finished CTA #1 (27384,0), 5 CTAs running
GPGPU-Sim uArch: core:  4, cta: 1 initialized @(27385,0)
GPGPU-Sim uArch: cycles simulated: 27500  inst.: 9913912 (ipc=360.5) sim_rate=431039 (inst/sec) elapsed = 0:0:00:23 / Fri Dec 16 03:14:01 2016
GPGPU-Sim PTX: 10100000 instructions simulated : ctaid=(4,1,0) tid=(15,8,0)
GPGPU-Sim uArch: Shader 6 finished CTA #0 (27899,0), 5 CTAs running
GPGPU-Sim uArch: core:  6, cta: 0 initialized @(27900,0)
GPGPU-Sim PTX: 10200000 instructions simulated : ctaid=(16,0,0) tid=(15,2,0)
GPGPU-Sim uArch: Shader 3 finished CTA #1 (28003,0), 5 CTAs running
GPGPU-Sim uArch: core:  3, cta: 1 initialized @(28004,0)
GPGPU-Sim PTX: 10300000 instructions simulated : ctaid=(16,1,0) tid=(15,14,0)
GPGPU-Sim uArch: cycles simulated: 28500  inst.: 10254832 (ipc=359.8) sim_rate=427284 (inst/sec) elapsed = 0:0:00:24 / Fri Dec 16 03:14:02 2016
GPGPU-Sim PTX: 10400000 instructions simulated : ctaid=(30,0,0) tid=(15,11,0)
GPGPU-Sim PTX: 10500000 instructions simulated : ctaid=(11,1,0) tid=(3,3,0)
GPGPU-Sim uArch: Shader 7 finished CTA #1 (28779,0), 5 CTAs running
GPGPU-Sim uArch: core:  7, cta: 1 initialized @(28780,0)
GPGPU-Sim PTX: 10600000 instructions simulated : ctaid=(9,1,0) tid=(15,14,0)
GPGPU-Sim PTX: 10700000 instructions simulated : ctaid=(16,0,0) tid=(7,1,0)
GPGPU-Sim PTX: 10800000 instructions simulated : ctaid=(6,1,0) tid=(7,1,0)
GPGPU-Sim uArch: Shader 0 finished CTA #1 (29708,0), 5 CTAs running
GPGPU-Sim uArch: core:  0, cta: 1 initialized @(29709,0)
GPGPU-Sim uArch: Shader 10 finished CTA #0 (29842,0), 5 CTAs running
GPGPU-Sim uArch: core: 10, cta: 0 initialized @(29843,0)
GPGPU-Sim uArch: Shader 13 finished CTA #0 (29859,0), 5 CTAs running
GPGPU-Sim uArch: core: 13, cta: 0 initialized @(29860,0)
GPGPU-Sim PTX: 10900000 instructions simulated : ctaid=(9,3,0) tid=(15,13,0)
GPGPU-Sim uArch: cycles simulated: 30000  inst.: 10775272 (ipc=359.2) sim_rate=431010 (inst/sec) elapsed = 0:0:00:25 / Fri Dec 16 03:14:03 2016
GPGPU-Sim PTX: 11000000 instructions simulated : ctaid=(0,2,0) tid=(15,6,0)
GPGPU-Sim PTX: 11100000 instructions simulated : ctaid=(9,1,0) tid=(7,4,0)
GPGPU-Sim PTX: 11200000 instructions simulated : ctaid=(6,2,0) tid=(15,13,0)
GPGPU-Sim uArch: cycles simulated: 31000  inst.: 11113760 (ipc=358.5) sim_rate=427452 (inst/sec) elapsed = 0:0:00:26 / Fri Dec 16 03:14:04 2016
GPGPU-Sim uArch: Shader 1 finished CTA #1 (31055,0), 5 CTAs running
GPGPU-Sim uArch: core:  1, cta: 1 initialized @(31056,0)
GPGPU-Sim PTX: 11300000 instructions simulated : ctaid=(3,1,0) tid=(15,9,0)
GPGPU-Sim uArch: Shader 11 finished CTA #1 (31279,0), 5 CTAs running
GPGPU-Sim uArch: core: 11, cta: 1 initialized @(31280,0)
GPGPU-Sim uArch: Shader 5 finished CTA #0 (31333,0), 5 CTAs running
GPGPU-Sim uArch: core:  5, cta: 0 initialized @(31334,0)
GPGPU-Sim PTX: 11400000 instructions simulated : ctaid=(0,2,0) tid=(15,5,0)
GPGPU-Sim uArch: Shader 9 finished CTA #0 (31567,0), 5 CTAs running
GPGPU-Sim uArch: core:  9, cta: 0 initialized @(31568,0)
GPGPU-Sim PTX: 11500000 instructions simulated : ctaid=(9,1,0) tid=(15,3,0)
GPGPU-Sim uArch: Shader 13 finished CTA #1 (31794,0), 5 CTAs running
GPGPU-Sim uArch: core: 13, cta: 1 initialized @(31795,0)
GPGPU-Sim PTX: 11600000 instructions simulated : ctaid=(30,1,0) tid=(3,7,0)
GPGPU-Sim uArch: cycles simulated: 32000  inst.: 11480600 (ipc=358.8) sim_rate=425207 (inst/sec) elapsed = 0:0:00:27 / Fri Dec 16 03:14:05 2016
GPGPU-Sim PTX: 11700000 instructions simulated : ctaid=(8,2,0) tid=(15,7,0)
GPGPU-Sim PTX: 11800000 instructions simulated : ctaid=(1,1,0) tid=(15,11,0)
GPGPU-Sim uArch: Shader 14 finished CTA #0 (32604,0), 5 CTAs running
GPGPU-Sim uArch: core: 14, cta: 0 initialized @(32605,0)
GPGPU-Sim PTX: 11900000 instructions simulated : ctaid=(31,1,0) tid=(15,5,0)
GPGPU-Sim PTX: 12000000 instructions simulated : ctaid=(17,3,0) tid=(7,5,0)
GPGPU-Sim uArch: Shader 9 finished CTA #1 (33297,0), 5 CTAs running
GPGPU-Sim uArch: core:  9, cta: 1 initialized @(33298,0)
GPGPU-Sim PTX: 12100000 instructions simulated : ctaid=(1,1,0) tid=(15,11,0)
GPGPU-Sim uArch: cycles simulated: 33500  inst.: 11991752 (ipc=358.0) sim_rate=428276 (inst/sec) elapsed = 0:0:00:28 / Fri Dec 16 03:14:06 2016
GPGPU-Sim PTX: 12200000 instructions simulated : ctaid=(13,3,0) tid=(3,15,0)
GPGPU-Sim uArch: Shader 5 finished CTA #1 (33710,0), 5 CTAs running
GPGPU-Sim uArch: core:  5, cta: 1 initialized @(33711,0)
GPGPU-Sim PTX: 12300000 instructions simulated : ctaid=(20,1,0) tid=(7,11,0)
GPGPU-Sim PTX: 12400000 instructions simulated : ctaid=(19,3,0) tid=(15,2,0)
GPGPU-Sim PTX: 12500000 instructions simulated : ctaid=(1,2,0) tid=(15,8,0)
GPGPU-Sim uArch: cycles simulated: 34500  inst.: 12365848 (ipc=358.4) sim_rate=426408 (inst/sec) elapsed = 0:0:00:29 / Fri Dec 16 03:14:07 2016
GPGPU-Sim PTX: 12600000 instructions simulated : ctaid=(20,0,0) tid=(15,6,0)
GPGPU-Sim PTX: 12700000 instructions simulated : ctaid=(7,2,0) tid=(7,2,0)
GPGPU-Sim uArch: Shader 2 finished CTA #1 (35128,0), 5 CTAs running
GPGPU-Sim uArch: core:  2, cta: 1 initialized @(35129,0)
GPGPU-Sim PTX: 12800000 instructions simulated : ctaid=(6,3,0) tid=(7,14,0)
GPGPU-Sim uArch: Shader 1 finished CTA #2 (35386,0), 5 CTAs running
GPGPU-Sim uArch: core:  1, cta: 2 initialized @(35387,0)
GPGPU-Sim uArch: cycles simulated: 35500  inst.: 12720320 (ipc=358.3) sim_rate=424010 (inst/sec) elapsed = 0:0:00:30 / Fri Dec 16 03:14:08 2016
GPGPU-Sim PTX: 12900000 instructions simulated : ctaid=(15,2,0) tid=(7,14,0)
GPGPU-Sim PTX: 13000000 instructions simulated : ctaid=(22,2,0) tid=(7,12,0)
GPGPU-Sim PTX: 13100000 instructions simulated : ctaid=(31,0,0) tid=(7,3,0)
GPGPU-Sim uArch: Shader 7 finished CTA #2 (36263,0), 5 CTAs running
GPGPU-Sim uArch: core:  7, cta: 2 initialized @(36264,0)
GPGPU-Sim PTX: 13200000 instructions simulated : ctaid=(10,1,0) tid=(7,1,0)
GPGPU-Sim uArch: Shader 9 finished CTA #2 (36641,0), 5 CTAs running
GPGPU-Sim uArch: core:  9, cta: 2 initialized @(36642,0)
GPGPU-Sim PTX: 13300000 instructions simulated : ctaid=(26,1,0) tid=(7,2,0)
GPGPU-Sim PTX: 13400000 instructions simulated : ctaid=(1,3,0) tid=(7,8,0)
GPGPU-Sim uArch: cycles simulated: 37000  inst.: 13253264 (ipc=358.2) sim_rate=427524 (inst/sec) elapsed = 0:0:00:31 / Fri Dec 16 03:14:09 2016
GPGPU-Sim PTX: 13500000 instructions simulated : ctaid=(29,1,0) tid=(3,13,0)
GPGPU-Sim uArch: Shader 10 finished CTA #1 (37179,0), 5 CTAs running
GPGPU-Sim uArch: core: 10, cta: 1 initialized @(37180,0)
GPGPU-Sim uArch: Shader 14 finished CTA #2 (37252,0), 5 CTAs running
GPGPU-Sim uArch: core: 14, cta: 2 initialized @(37253,0)
GPGPU-Sim PTX: 13600000 instructions simulated : ctaid=(10,1,0) tid=(7,5,0)
GPGPU-Sim uArch: Shader 3 finished CTA #2 (37682,0), 5 CTAs running
GPGPU-Sim uArch: core:  3, cta: 2 initialized @(37683,0)
GPGPU-Sim PTX: 13700000 instructions simulated : ctaid=(6,2,0) tid=(15,3,0)
GPGPU-Sim uArch: Shader 11 finished CTA #2 (37904,0), 5 CTAs running
GPGPU-Sim uArch: core: 11, cta: 2 initialized @(37905,0)
GPGPU-Sim uArch: Shader 10 finished CTA #2 (37930,0), 5 CTAs running
GPGPU-Sim uArch: core: 10, cta: 2 initialized @(37931,0)
GPGPU-Sim uArch: Shader 2 finished CTA #2 (37951,0), 5 CTAs running
GPGPU-Sim uArch: core:  2, cta: 2 initialized @(37952,0)
GPGPU-Sim PTX: 13800000 instructions simulated : ctaid=(21,1,0) tid=(7,4,0)
GPGPU-Sim uArch: cycles simulated: 38000  inst.: 13621816 (ipc=358.5) sim_rate=425681 (inst/sec) elapsed = 0:0:00:32 / Fri Dec 16 03:14:10 2016
GPGPU-Sim PTX: 13900000 instructions simulated : ctaid=(21,2,0) tid=(15,11,0)
GPGPU-Sim PTX: 14000000 instructions simulated : ctaid=(28,0,0) tid=(7,13,0)
GPGPU-Sim uArch: Shader 0 finished CTA #2 (38524,0), 5 CTAs running
GPGPU-Sim uArch: core:  0, cta: 2 initialized @(38525,0)
GPGPU-Sim uArch: Shader 6 finished CTA #1 (38748,0), 5 CTAs running
GPGPU-Sim uArch: core:  6, cta: 1 initialized @(38749,0)
GPGPU-Sim PTX: 14100000 instructions simulated : ctaid=(23,1,0) tid=(7,10,0)
GPGPU-Sim uArch: Shader 14 finished CTA #1 (38870,0), 5 CTAs running
GPGPU-Sim uArch: core: 14, cta: 1 initialized @(38871,0)
GPGPU-Sim PTX: 14200000 instructions simulated : ctaid=(10,2,0) tid=(15,8,0)
GPGPU-Sim uArch: cycles simulated: 39000  inst.: 14010456 (ipc=359.2) sim_rate=424559 (inst/sec) elapsed = 0:0:00:33 / Fri Dec 16 03:14:11 2016
GPGPU-Sim PTX: 14300000 instructions simulated : ctaid=(23,2,0) tid=(7,12,0)
GPGPU-Sim uArch: Shader 13 finished CTA #2 (39375,0), 5 CTAs running
GPGPU-Sim uArch: core: 13, cta: 2 initialized @(39376,0)
GPGPU-Sim PTX: 14400000 instructions simulated : ctaid=(16,2,0) tid=(15,8,0)
GPGPU-Sim PTX: 14500000 instructions simulated : ctaid=(27,1,0) tid=(15,10,0)
GPGPU-Sim PTX: 14600000 instructions simulated : ctaid=(8,2,0) tid=(15,4,0)
GPGPU-Sim uArch: cycles simulated: 40000  inst.: 14401480 (ipc=360.0) sim_rate=423572 (inst/sec) elapsed = 0:0:00:34 / Fri Dec 16 03:14:12 2016
GPGPU-Sim uArch: Shader 5 finished CTA #2 (40005,0), 5 CTAs running
GPGPU-Sim uArch: core:  5, cta: 2 initialized @(40006,0)
GPGPU-Sim uArch: Shader 6 finished CTA #2 (40095,0), 5 CTAs running
GPGPU-Sim uArch: core:  6, cta: 2 initialized @(40096,0)
GPGPU-Sim uArch: Shader 11 finished CTA #3 (40207,0), 5 CTAs running
GPGPU-Sim uArch: core: 11, cta: 3 initialized @(40208,0)
GPGPU-Sim PTX: 14700000 instructions simulated : ctaid=(22,1,0) tid=(3,13,0)
GPGPU-Sim PTX: 14800000 instructions simulated : ctaid=(1,3,0) tid=(7,3,0)
GPGPU-Sim PTX: 14900000 instructions simulated : ctaid=(3,2,0) tid=(3,11,0)
GPGPU-Sim uArch: Shader 8 finished CTA #2 (40864,0), 5 CTAs running
GPGPU-Sim uArch: core:  8, cta: 2 initialized @(40865,0)
GPGPU-Sim uArch: Shader 7 finished CTA #3 (40894,0), 5 CTAs running
GPGPU-Sim uArch: core:  7, cta: 3 initialized @(40895,0)
GPGPU-Sim PTX: 15000000 instructions simulated : ctaid=(5,4,0) tid=(15,8,0)
GPGPU-Sim uArch: cycles simulated: 41000  inst.: 14798832 (ipc=360.9) sim_rate=422823 (inst/sec) elapsed = 0:0:00:35 / Fri Dec 16 03:14:13 2016
GPGPU-Sim PTX: 15100000 instructions simulated : ctaid=(10,2,0) tid=(15,5,0)
GPGPU-Sim uArch: Shader 4 finished CTA #2 (41481,0), 5 CTAs running
GPGPU-Sim uArch: core:  4, cta: 2 initialized @(41482,0)
GPGPU-Sim PTX: 15200000 instructions simulated : ctaid=(4,2,0) tid=(3,15,0)
GPGPU-Sim PTX: 15300000 instructions simulated : ctaid=(9,2,0) tid=(7,4,0)
GPGPU-Sim uArch: Shader 3 finished CTA #3 (41865,0), 5 CTAs running
GPGPU-Sim uArch: core:  3, cta: 3 initialized @(41866,0)
GPGPU-Sim PTX: 15400000 instructions simulated : ctaid=(5,2,0) tid=(15,1,0)
GPGPU-Sim PTX: 15500000 instructions simulated : ctaid=(17,1,0) tid=(15,11,0)
GPGPU-Sim PTX: 15600000 instructions simulated : ctaid=(28,2,0) tid=(7,15,0)
GPGPU-Sim uArch: Shader 12 finished CTA #2 (42495,0), 5 CTAs running
GPGPU-Sim uArch: core: 12, cta: 2 initialized @(42496,0)
GPGPU-Sim uArch: cycles simulated: 42500  inst.: 15403856 (ipc=362.4) sim_rate=427884 (inst/sec) elapsed = 0:0:00:36 / Fri Dec 16 03:14:14 2016
GPGPU-Sim PTX: 15700000 instructions simulated : ctaid=(18,2,0) tid=(7,3,0)
GPGPU-Sim PTX: 15800000 instructions simulated : ctaid=(7,2,0) tid=(15,3,0)
GPGPU-Sim uArch: Shader 8 finished CTA #3 (42981,0), 5 CTAs running
GPGPU-Sim uArch: core:  8, cta: 3 initialized @(42982,0)
GPGPU-Sim PTX: 15900000 instructions simulated : ctaid=(14,2,0) tid=(3,11,0)
GPGPU-Sim uArch: Shader 6 finished CTA #3 (43436,0), 5 CTAs running
GPGPU-Sim uArch: core:  6, cta: 3 initialized @(43437,0)
GPGPU-Sim PTX: 16000000 instructions simulated : ctaid=(26,3,0) tid=(15,4,0)
GPGPU-Sim uArch: cycles simulated: 43500  inst.: 15789296 (ipc=363.0) sim_rate=426737 (inst/sec) elapsed = 0:0:00:37 / Fri Dec 16 03:14:15 2016
GPGPU-Sim PTX: 16100000 instructions simulated : ctaid=(6,2,0) tid=(15,4,0)
GPGPU-Sim uArch: Shader 10 finished CTA #3 (43794,0), 5 CTAs running
GPGPU-Sim uArch: core: 10, cta: 3 initialized @(43795,0)
GPGPU-Sim uArch: Shader 4 finished CTA #3 (43956,0), 5 CTAs running
GPGPU-Sim uArch: core:  4, cta: 3 initialized @(43957,0)
GPGPU-Sim PTX: 16200000 instructions simulated : ctaid=(19,2,0) tid=(7,6,0)
GPGPU-Sim uArch: Shader 2 finished CTA #3 (44206,0), 5 CTAs running
GPGPU-Sim uArch: core:  2, cta: 3 initialized @(44207,0)
GPGPU-Sim PTX: 16300000 instructions simulated : ctaid=(27,3,0) tid=(15,12,0)
GPGPU-Sim uArch: cycles simulated: 44500  inst.: 16160560 (ipc=363.2) sim_rate=425277 (inst/sec) elapsed = 0:0:00:38 / Fri Dec 16 03:14:16 2016
GPGPU-Sim PTX: 16400000 instructions simulated : ctaid=(21,2,0) tid=(7,11,0)
GPGPU-Sim PTX: 16500000 instructions simulated : ctaid=(0,3,0) tid=(3,15,0)
GPGPU-Sim uArch: Shader 0 finished CTA #3 (44864,0), 5 CTAs running
GPGPU-Sim uArch: core:  0, cta: 3 initialized @(44865,0)
GPGPU-Sim uArch: Shader 12 finished CTA #3 (44893,0), 5 CTAs running
GPGPU-Sim uArch: core: 12, cta: 3 initialized @(44894,0)
GPGPU-Sim PTX: 16600000 instructions simulated : ctaid=(10,2,0) tid=(15,8,0)
GPGPU-Sim PTX: 16700000 instructions simulated : ctaid=(30,1,0) tid=(15,4,0)
GPGPU-Sim uArch: Shader 14 finished CTA #3 (45432,0), 5 CTAs running
GPGPU-Sim uArch: core: 14, cta: 3 initialized @(45433,0)
GPGPU-Sim uArch: cycles simulated: 45500  inst.: 16518808 (ipc=363.1) sim_rate=423559 (inst/sec) elapsed = 0:0:00:39 / Fri Dec 16 03:14:17 2016
GPGPU-Sim PTX: 16800000 instructions simulated : ctaid=(9,2,0) tid=(3,5,0)
GPGPU-Sim PTX: 16900000 instructions simulated : ctaid=(30,1,0) tid=(15,10,0)
GPGPU-Sim PTX: 17000000 instructions simulated : ctaid=(9,2,0) tid=(7,0,0)
GPGPU-Sim PTX: 17100000 instructions simulated : ctaid=(30,3,0) tid=(7,14,0)
GPGPU-Sim PTX: 17200000 instructions simulated : ctaid=(30,1,0) tid=(7,6,0)
GPGPU-Sim uArch: cycles simulated: 47000  inst.: 17055320 (ipc=362.9) sim_rate=426383 (inst/sec) elapsed = 0:0:00:40 / Fri Dec 16 03:14:18 2016
GPGPU-Sim PTX: 17300000 instructions simulated : ctaid=(4,2,0) tid=(3,11,0)
GPGPU-Sim PTX: 17400000 instructions simulated : ctaid=(5,2,0) tid=(7,9,0)
GPGPU-Sim uArch: Shader 3 finished CTA #4 (47335,0), 5 CTAs running
GPGPU-Sim uArch: core:  3, cta: 4 initialized @(47336,0)
GPGPU-Sim uArch: Shader 1 finished CTA #3 (47499,0), 5 CTAs running
GPGPU-Sim uArch: core:  1, cta: 3 initialized @(47500,0)
GPGPU-Sim PTX: 17500000 instructions simulated : ctaid=(8,2,0) tid=(3,1,0)
GPGPU-Sim PTX: 17600000 instructions simulated : ctaid=(3,3,0) tid=(15,0,0)
GPGPU-Sim uArch: cycles simulated: 48000  inst.: 17435448 (ipc=363.2) sim_rate=425254 (inst/sec) elapsed = 0:0:00:41 / Fri Dec 16 03:14:19 2016
GPGPU-Sim PTX: 17700000 instructions simulated : ctaid=(30,3,0) tid=(15,11,0)
GPGPU-Sim PTX: 17800000 instructions simulated : ctaid=(29,1,0) tid=(7,3,0)
GPGPU-Sim PTX: 17900000 instructions simulated : ctaid=(7,2,0) tid=(7,11,0)
GPGPU-Sim uArch: Shader 13 finished CTA #4 (48692,0), 5 CTAs running
GPGPU-Sim uArch: core: 13, cta: 4 initialized @(48693,0)
GPGPU-Sim PTX: 18000000 instructions simulated : ctaid=(11,2,0) tid=(3,1,0)
GPGPU-Sim uArch: Shader 4 finished CTA #4 (48790,0), 5 CTAs running
GPGPU-Sim uArch: core:  4, cta: 4 initialized @(48791,0)
GPGPU-Sim uArch: cycles simulated: 49000  inst.: 17855016 (ipc=364.4) sim_rate=425119 (inst/sec) elapsed = 0:0:00:42 / Fri Dec 16 03:14:20 2016
GPGPU-Sim PTX: 18100000 instructions simulated : ctaid=(25,2,0) tid=(3,7,0)
GPGPU-Sim uArch: Shader 8 finished CTA #4 (49146,0), 5 CTAs running
GPGPU-Sim uArch: core:  8, cta: 4 initialized @(49147,0)
GPGPU-Sim uArch: Shader 12 finished CTA #4 (49210,0), 5 CTAs running
GPGPU-Sim uArch: core: 12, cta: 4 initialized @(49211,0)
GPGPU-Sim PTX: 18200000 instructions simulated : ctaid=(10,3,0) tid=(7,12,0)
GPGPU-Sim PTX: 18300000 instructions simulated : ctaid=(6,3,0) tid=(15,13,0)
GPGPU-Sim uArch: Shader 5 finished CTA #4 (49693,0), 5 CTAs running
GPGPU-Sim uArch: core:  5, cta: 4 initialized @(49694,0)
GPGPU-Sim PTX: 18400000 instructions simulated : ctaid=(22,3,0) tid=(7,0,0)
GPGPU-Sim uArch: cycles simulated: 50000  inst.: 18248584 (ipc=365.0) sim_rate=424385 (inst/sec) elapsed = 0:0:00:43 / Fri Dec 16 03:14:21 2016
GPGPU-Sim PTX: 18500000 instructions simulated : ctaid=(4,3,0) tid=(7,5,0)
GPGPU-Sim uArch: Shader 13 finished CTA #3 (50022,0), 5 CTAs running
GPGPU-Sim uArch: core: 13, cta: 3 initialized @(50023,0)
GPGPU-Sim PTX: 18600000 instructions simulated : ctaid=(12,4,0) tid=(15,1,0)
GPGPU-Sim uArch: Shader 5 finished CTA #3 (50270,0), 5 CTAs running
GPGPU-Sim uArch: core:  5, cta: 3 initialized @(50271,0)
GPGPU-Sim uArch: Shader 9 finished CTA #3 (50357,0), 5 CTAs running
GPGPU-Sim uArch: core:  9, cta: 3 initialized @(50358,0)
GPGPU-Sim uArch: Shader 9 finished CTA #4 (50366,0), 5 CTAs running
GPGPU-Sim uArch: core:  9, cta: 4 initialized @(50367,0)
GPGPU-Sim uArch: Shader 1 finished CTA #4 (50371,0), 5 CTAs running
GPGPU-Sim uArch: core:  1, cta: 4 initialized @(50372,0)
GPGPU-Sim PTX: 18700000 instructions simulated : ctaid=(7,3,0) tid=(15,15,0)
GPGPU-Sim PTX: 18800000 instructions simulated : ctaid=(13,2,0) tid=(7,0,0)
GPGPU-Sim PTX: 18900000 instructions simulated : ctaid=(26,4,0) tid=(3,1,0)
GPGPU-Sim uArch: cycles simulated: 51000  inst.: 18693904 (ipc=366.5) sim_rate=424861 (inst/sec) elapsed = 0:0:00:44 / Fri Dec 16 03:14:22 2016
GPGPU-Sim PTX: 19000000 instructions simulated : ctaid=(28,3,0) tid=(15,11,0)
GPGPU-Sim uArch: Shader 10 finished CTA #4 (51299,0), 5 CTAs running
GPGPU-Sim uArch: core: 10, cta: 4 initialized @(51300,0)
GPGPU-Sim PTX: 19100000 instructions simulated : ctaid=(30,4,0) tid=(15,5,0)
GPGPU-Sim PTX: 19200000 instructions simulated : ctaid=(11,2,0) tid=(3,13,0)
GPGPU-Sim uArch: Shader 14 finished CTA #4 (51713,0), 5 CTAs running
GPGPU-Sim uArch: core: 14, cta: 4 initialized @(51714,0)
GPGPU-Sim PTX: 19300000 instructions simulated : ctaid=(31,2,0) tid=(7,6,0)
GPGPU-Sim uArch: Shader 6 finished CTA #4 (51920,0), 5 CTAs running
GPGPU-Sim uArch: core:  6, cta: 4 initialized @(51921,0)
GPGPU-Sim uArch: cycles simulated: 52000  inst.: 19115256 (ipc=367.6) sim_rate=424783 (inst/sec) elapsed = 0:0:00:45 / Fri Dec 16 03:14:23 2016
GPGPU-Sim PTX: 19400000 instructions simulated : ctaid=(11,3,0) tid=(7,4,0)
GPGPU-Sim PTX: 19500000 instructions simulated : ctaid=(23,2,0) tid=(15,10,0)
GPGPU-Sim PTX: 19600000 instructions simulated : ctaid=(23,2,0) tid=(7,8,0)
GPGPU-Sim PTX: 19700000 instructions simulated : ctaid=(2,2,0) tid=(15,5,0)
GPGPU-Sim PTX: 19800000 instructions simulated : ctaid=(13,2,0) tid=(7,1,0)
GPGPU-Sim uArch: Shader 11 finished CTA #4 (53138,0), 5 CTAs running
GPGPU-Sim uArch: core: 11, cta: 4 initialized @(53139,0)
GPGPU-Sim PTX: 19900000 instructions simulated : ctaid=(16,2,0) tid=(7,0,0)
GPGPU-Sim uArch: Shader 7 finished CTA #4 (53367,0), 5 CTAs running
GPGPU-Sim uArch: core:  7, cta: 4 initialized @(53368,0)
GPGPU-Sim PTX: 20000000 instructions simulated : ctaid=(15,2,0) tid=(7,12,0)
GPGPU-Sim uArch: cycles simulated: 53500  inst.: 19733512 (ipc=368.9) sim_rate=428989 (inst/sec) elapsed = 0:0:00:46 / Fri Dec 16 03:14:24 2016
GPGPU-Sim PTX: 20100000 instructions simulated : ctaid=(19,2,0) tid=(15,1,0)
GPGPU-Sim uArch: Shader 0 finished CTA #4 (53984,0), 5 CTAs running
GPGPU-Sim uArch: core:  0, cta: 4 initialized @(53985,0)
GPGPU-Sim PTX: 20200000 instructions simulated : ctaid=(0,3,0) tid=(15,3,0)
GPGPU-Sim PTX: 20300000 instructions simulated : ctaid=(30,2,0) tid=(7,12,0)
GPGPU-Sim PTX: 20400000 instructions simulated : ctaid=(29,2,0) tid=(15,8,0)
GPGPU-Sim uArch: cycles simulated: 54500  inst.: 20149912 (ipc=369.7) sim_rate=428721 (inst/sec) elapsed = 0:0:00:47 / Fri Dec 16 03:14:25 2016
GPGPU-Sim PTX: 20500000 instructions simulated : ctaid=(19,2,0) tid=(15,14,0)
GPGPU-Sim PTX: 20600000 instructions simulated : ctaid=(28,2,0) tid=(7,14,0)
GPGPU-Sim PTX: 20700000 instructions simulated : ctaid=(9,4,0) tid=(15,11,0)
GPGPU-Sim PTX: 20800000 instructions simulated : ctaid=(23,2,0) tid=(15,14,0)
GPGPU-Sim uArch: cycles simulated: 55500  inst.: 20564336 (ipc=370.5) sim_rate=428423 (inst/sec) elapsed = 0:0:00:48 / Fri Dec 16 03:14:26 2016
GPGPU-Sim uArch: Shader 2 finished CTA #4 (55609,0), 5 CTAs running
GPGPU-Sim uArch: core:  2, cta: 4 initialized @(55610,0)
GPGPU-Sim PTX: 20900000 instructions simulated : ctaid=(17,3,0) tid=(3,11,0)
GPGPU-Sim uArch: Shader 1 finished CTA #5 (55683,0), 5 CTAs running
GPGPU-Sim uArch: core:  1, cta: 5 initialized @(55684,0)
GPGPU-Sim uArch: Shader 5 finished CTA #5 (55737,0), 5 CTAs running
GPGPU-Sim uArch: core:  5, cta: 5 initialized @(55738,0)
GPGPU-Sim uArch: Shader 7 finished CTA #5 (55891,0), 5 CTAs running
GPGPU-Sim uArch: core:  7, cta: 5 initialized @(55892,0)
GPGPU-Sim uArch: Shader 3 finished CTA #5 (55914,0), 5 CTAs running
GPGPU-Sim uArch: core:  3, cta: 5 initialized @(55915,0)
GPGPU-Sim PTX: 21000000 instructions simulated : ctaid=(17,4,0) tid=(7,14,0)
GPGPU-Sim PTX: 21100000 instructions simulated : ctaid=(17,3,0) tid=(15,11,0)
GPGPU-Sim PTX: 21200000 instructions simulated : ctaid=(6,3,0) tid=(15,5,0)
GPGPU-Sim uArch: cycles simulated: 56500  inst.: 20946760 (ipc=370.7) sim_rate=427484 (inst/sec) elapsed = 0:0:00:49 / Fri Dec 16 03:14:27 2016
GPGPU-Sim PTX: 21300000 instructions simulated : ctaid=(20,2,0) tid=(7,9,0)
GPGPU-Sim uArch: Shader 0 finished CTA #5 (56751,0), 5 CTAs running
GPGPU-Sim uArch: core:  0, cta: 5 initialized @(56752,0)
GPGPU-Sim PTX: 21400000 instructions simulated : ctaid=(26,2,0) tid=(7,2,0)
GPGPU-Sim PTX: 21500000 instructions simulated : ctaid=(10,3,0) tid=(15,3,0)
GPGPU-Sim PTX: 21600000 instructions simulated : ctaid=(21,3,0) tid=(15,10,0)
GPGPU-Sim uArch: Shader 9 finished CTA #5 (57493,0), 5 CTAs running
GPGPU-Sim uArch: core:  9, cta: 5 initialized @(57494,0)
GPGPU-Sim uArch: cycles simulated: 57500  inst.: 21335584 (ipc=371.1) sim_rate=426711 (inst/sec) elapsed = 0:0:00:50 / Fri Dec 16 03:14:28 2016
GPGPU-Sim PTX: 21700000 instructions simulated : ctaid=(1,3,0) tid=(3,11,0)
GPGPU-Sim uArch: Shader 13 finished CTA #5 (57891,0), 5 CTAs running
GPGPU-Sim uArch: core: 13, cta: 5 initialized @(57892,0)
GPGPU-Sim PTX: 21800000 instructions simulated : ctaid=(15,3,0) tid=(15,4,0)
GPGPU-Sim uArch: Shader 11 finished CTA #5 (57958,0), 5 CTAs running
GPGPU-Sim uArch: core: 11, cta: 5 initialized @(57959,0)
GPGPU-Sim PTX: 21900000 instructions simulated : ctaid=(6,3,0) tid=(15,6,0)
GPGPU-Sim uArch: Shader 14 finished CTA #5 (58179,0), 5 CTAs running
GPGPU-Sim uArch: core: 14, cta: 5 initialized @(58180,0)
GPGPU-Sim PTX: 22000000 instructions simulated : ctaid=(12,2,0) tid=(7,11,0)
GPGPU-Sim uArch: cycles simulated: 58500  inst.: 21773504 (ipc=372.2) sim_rate=426931 (inst/sec) elapsed = 0:0:00:51 / Fri Dec 16 03:14:29 2016
GPGPU-Sim PTX: 22100000 instructions simulated : ctaid=(16,4,0) tid=(7,12,0)
GPGPU-Sim uArch: Shader 6 finished CTA #5 (58677,0), 5 CTAs running
GPGPU-Sim uArch: core:  6, cta: 5 initialized @(58678,0)
GPGPU-Sim PTX: 22200000 instructions simulated : ctaid=(1,4,0) tid=(15,6,0)
GPGPU-Sim uArch: Shader 2 finished CTA #5 (58945,0), 5 CTAs running
GPGPU-Sim uArch: core:  2, cta: 5 initialized @(58946,0)
GPGPU-Sim uArch: Shader 10 finished CTA #5 (59020,0), 5 CTAs running
GPGPU-Sim uArch: core: 10, cta: 5 initialized @(59021,0)
GPGPU-Sim PTX: 22300000 instructions simulated : ctaid=(11,3,0) tid=(7,12,0)
GPGPU-Sim PTX: 22400000 instructions simulated : ctaid=(8,3,0) tid=(15,11,0)
GPGPU-Sim uArch: cycles simulated: 59500  inst.: 22164008 (ipc=372.5) sim_rate=426230 (inst/sec) elapsed = 0:0:00:52 / Fri Dec 16 03:14:30 2016
GPGPU-Sim PTX: 22500000 instructions simulated : ctaid=(19,4,0) tid=(7,5,0)
GPGPU-Sim PTX: 22600000 instructions simulated : ctaid=(8,4,0) tid=(15,8,0)
GPGPU-Sim PTX: 22700000 instructions simulated : ctaid=(20,3,0) tid=(3,15,0)
GPGPU-Sim PTX: 22800000 instructions simulated : ctaid=(29,3,0) tid=(3,1,0)
GPGPU-Sim uArch: cycles simulated: 60500  inst.: 22561656 (ipc=372.9) sim_rate=425691 (inst/sec) elapsed = 0:0:00:53 / Fri Dec 16 03:14:31 2016
GPGPU-Sim PTX: 22900000 instructions simulated : ctaid=(22,2,0) tid=(7,1,0)
GPGPU-Sim PTX: 23000000 instructions simulated : ctaid=(29,2,0) tid=(15,2,0)
GPGPU-Sim PTX: 23100000 instructions simulated : ctaid=(14,3,0) tid=(7,3,0)
GPGPU-Sim PTX: 23200000 instructions simulated : ctaid=(24,3,0) tid=(7,2,0)
GPGPU-Sim PTX: 23300000 instructions simulated : ctaid=(30,3,0) tid=(7,1,0)
GPGPU-Sim uArch: cycles simulated: 61500  inst.: 22995120 (ipc=373.9) sim_rate=425835 (inst/sec) elapsed = 0:0:00:54 / Fri Dec 16 03:14:32 2016
GPGPU-Sim uArch: Shader 12 finished CTA #5 (61532,0), 5 CTAs running
GPGPU-Sim uArch: core: 12, cta: 5 initialized @(61533,0)
GPGPU-Sim PTX: 23400000 instructions simulated : ctaid=(11,3,0) tid=(15,7,0)
GPGPU-Sim uArch: Shader 4 finished CTA #5 (61812,0), 5 CTAs running
GPGPU-Sim uArch: core:  4, cta: 5 initialized @(61813,0)
GPGPU-Sim PTX: 23500000 instructions simulated : ctaid=(31,2,0) tid=(15,1,0)
GPGPU-Sim PTX: 23600000 instructions simulated : ctaid=(23,3,0) tid=(15,0,0)
GPGPU-Sim PTX: 23700000 instructions simulated : ctaid=(25,4,0) tid=(7,1,0)
GPGPU-Sim uArch: cycles simulated: 62500  inst.: 23399520 (ipc=374.4) sim_rate=425445 (inst/sec) elapsed = 0:0:00:55 / Fri Dec 16 03:14:33 2016
GPGPU-Sim PTX: 23800000 instructions simulated : ctaid=(30,3,0) tid=(7,8,0)
GPGPU-Sim uArch: Shader 11 finished CTA #0 (62920,0), 5 CTAs running
GPGPU-Sim uArch: core: 11, cta: 0 initialized @(62921,0)
GPGPU-Sim PTX: 23900000 instructions simulated : ctaid=(31,3,0) tid=(15,2,0)
GPGPU-Sim uArch: Shader 8 finished CTA #5 (63190,0), 5 CTAs running
GPGPU-Sim uArch: core:  8, cta: 5 initialized @(63191,0)
GPGPU-Sim PTX: 24000000 instructions simulated : ctaid=(29,2,0) tid=(15,1,0)
GPGPU-Sim PTX: 24100000 instructions simulated : ctaid=(10,3,0) tid=(7,11,0)
GPGPU-Sim uArch: cycles simulated: 63500  inst.: 23780640 (ipc=374.5) sim_rate=424654 (inst/sec) elapsed = 0:0:00:56 / Fri Dec 16 03:14:34 2016
GPGPU-Sim uArch: Shader 7 finished CTA #0 (63581,0), 5 CTAs running
GPGPU-Sim uArch: core:  7, cta: 0 initialized @(63582,0)
GPGPU-Sim PTX: 24200000 instructions simulated : ctaid=(2,3,0) tid=(3,9,0)
GPGPU-Sim PTX: 24300000 instructions simulated : ctaid=(2,4,0) tid=(15,1,0)
GPGPU-Sim uArch: Shader 8 finished CTA #0 (64193,0), 5 CTAs running
GPGPU-Sim uArch: core:  8, cta: 0 initialized @(64194,0)
GPGPU-Sim PTX: 24400000 instructions simulated : ctaid=(28,3,0) tid=(7,13,0)
GPGPU-Sim PTX: 24500000 instructions simulated : ctaid=(23,3,0) tid=(3,15,0)
GPGPU-Sim PTX: 24600000 instructions simulated : ctaid=(24,4,0) tid=(7,0,0)
GPGPU-Sim uArch: cycles simulated: 65000  inst.: 24351488 (ipc=374.6) sim_rate=427219 (inst/sec) elapsed = 0:0:00:57 / Fri Dec 16 03:14:35 2016
GPGPU-Sim PTX: 24700000 instructions simulated : ctaid=(27,3,0) tid=(3,15,0)
GPGPU-Sim PTX: 24800000 instructions simulated : ctaid=(27,3,0) tid=(15,5,0)
GPGPU-Sim PTX: 24900000 instructions simulated : ctaid=(18,3,0) tid=(7,10,0)
GPGPU-Sim uArch: Shader 14 finished CTA #0 (65729,0), 5 CTAs running
GPGPU-Sim uArch: core: 14, cta: 0 initialized @(65730,0)
GPGPU-Sim PTX: 25000000 instructions simulated : ctaid=(11,3,0) tid=(15,9,0)
GPGPU-Sim uArch: cycles simulated: 66000  inst.: 24716048 (ipc=374.5) sim_rate=426138 (inst/sec) elapsed = 0:0:00:58 / Fri Dec 16 03:14:36 2016
GPGPU-Sim PTX: 25100000 instructions simulated : ctaid=(1,4,0) tid=(7,13,0)
GPGPU-Sim uArch: Shader 4 finished CTA #0 (66323,0), 5 CTAs running
GPGPU-Sim uArch: core:  4, cta: 0 initialized @(66324,0)
GPGPU-Sim uArch: Shader 0 finished CTA #0 (66334,0), 5 CTAs running
GPGPU-Sim uArch: core:  0, cta: 0 initialized @(66335,0)
GPGPU-Sim PTX: 25200000 instructions simulated : ctaid=(5,4,0) tid=(7,9,0)
GPGPU-Sim PTX: 25300000 instructions simulated : ctaid=(30,2,0) tid=(15,11,0)
GPGPU-Sim PTX: 25400000 instructions simulated : ctaid=(9,3,0) tid=(7,7,0)
GPGPU-Sim uArch: cycles simulated: 67000  inst.: 25104728 (ipc=374.7) sim_rate=425503 (inst/sec) elapsed = 0:0:00:59 / Fri Dec 16 03:14:37 2016
GPGPU-Sim PTX: 25500000 instructions simulated : ctaid=(4,3,0) tid=(3,5,0)
GPGPU-Sim uArch: Shader 6 finished CTA #0 (67396,0), 5 CTAs running
GPGPU-Sim uArch: core:  6, cta: 0 initialized @(67397,0)
GPGPU-Sim PTX: 25600000 instructions simulated : ctaid=(10,3,0) tid=(7,6,0)
GPGPU-Sim PTX: 25700000 instructions simulated : ctaid=(18,3,0) tid=(7,4,0)
GPGPU-Sim PTX: 25800000 instructions simulated : ctaid=(18,4,0) tid=(15,5,0)
GPGPU-Sim uArch: cycles simulated: 68000  inst.: 25481560 (ipc=374.7) sim_rate=424692 (inst/sec) elapsed = 0:0:01:00 / Fri Dec 16 03:14:38 2016
GPGPU-Sim PTX: 25900000 instructions simulated : ctaid=(26,3,0) tid=(7,13,0)
GPGPU-Sim PTX: 26000000 instructions simulated : ctaid=(16,3,0) tid=(3,15,0)
GPGPU-Sim PTX: 26100000 instructions simulated : ctaid=(24,4,0) tid=(15,10,0)
GPGPU-Sim uArch: Shader 5 finished CTA #0 (68898,0), 5 CTAs running
GPGPU-Sim uArch: core:  5, cta: 0 initialized @(68899,0)
GPGPU-Sim PTX: 26200000 instructions simulated : ctaid=(16,3,0) tid=(3,5,0)
GPGPU-Sim uArch: cycles simulated: 69000  inst.: 25854944 (ipc=374.7) sim_rate=423851 (inst/sec) elapsed = 0:0:01:01 / Fri Dec 16 03:14:39 2016
GPGPU-Sim PTX: 26300000 instructions simulated : ctaid=(27,5,0) tid=(15,2,0)
GPGPU-Sim uArch: Shader 7 finished CTA #1 (69552,0), 5 CTAs running
GPGPU-Sim uArch: core:  7, cta: 1 initialized @(69553,0)
GPGPU-Sim PTX: 26400000 instructions simulated : ctaid=(21,3,0) tid=(15,7,0)
GPGPU-Sim uArch: Shader 1 finished CTA #0 (69608,0), 5 CTAs running
GPGPU-Sim uArch: core:  1, cta: 0 initialized @(69609,0)
GPGPU-Sim PTX: 26500000 instructions simulated : ctaid=(27,4,0) tid=(7,3,0)
GPGPU-Sim uArch: cycles simulated: 70000  inst.: 26207696 (ipc=374.4) sim_rate=422704 (inst/sec) elapsed = 0:0:01:02 / Fri Dec 16 03:14:40 2016
GPGPU-Sim PTX: 26600000 instructions simulated : ctaid=(10,3,0) tid=(3,15,0)
GPGPU-Sim PTX: 26700000 instructions simulated : ctaid=(22,3,0) tid=(15,4,0)
GPGPU-Sim uArch: Shader 3 finished CTA #0 (70453,0), 5 CTAs running
GPGPU-Sim uArch: core:  3, cta: 0 initialized @(70454,0)
GPGPU-Sim PTX: 26800000 instructions simulated : ctaid=(10,3,0) tid=(7,14,0)
GPGPU-Sim uArch: Shader 2 finished CTA #0 (70618,0), 5 CTAs running
GPGPU-Sim uArch: core:  2, cta: 0 initialized @(70619,0)
GPGPU-Sim PTX: 26900000 instructions simulated : ctaid=(31,3,0) tid=(15,11,0)
GPGPU-Sim uArch: Shader 9 finished CTA #0 (70910,0), 5 CTAs running
GPGPU-Sim uArch: core:  9, cta: 0 initialized @(70911,0)
GPGPU-Sim uArch: Shader 0 finished CTA #1 (70978,0), 5 CTAs running
GPGPU-Sim uArch: core:  0, cta: 1 initialized @(70979,0)
GPGPU-Sim uArch: cycles simulated: 71000  inst.: 26622640 (ipc=375.0) sim_rate=422581 (inst/sec) elapsed = 0:0:01:03 / Fri Dec 16 03:14:41 2016
GPGPU-Sim uArch: Shader 1 finished CTA #1 (71002,0), 5 CTAs running
GPGPU-Sim uArch: core:  1, cta: 1 initialized @(71003,0)
GPGPU-Sim PTX: 27000000 instructions simulated : ctaid=(1,5,0) tid=(3,1,0)
GPGPU-Sim uArch: Shader 11 finished CTA #1 (71271,0), 5 CTAs running
GPGPU-Sim uArch: core: 11, cta: 1 initialized @(71272,0)
GPGPU-Sim uArch: Shader 10 finished CTA #0 (71289,0), 5 CTAs running
GPGPU-Sim uArch: core: 10, cta: 0 initialized @(71290,0)
GPGPU-Sim PTX: 27100000 instructions simulated : ctaid=(20,4,0) tid=(7,7,0)
GPGPU-Sim PTX: 27200000 instructions simulated : ctaid=(2,4,0) tid=(15,1,0)
GPGPU-Sim PTX: 27300000 instructions simulated : ctaid=(13,4,0) tid=(7,13,0)
GPGPU-Sim uArch: cycles simulated: 72000  inst.: 27007984 (ipc=375.1) sim_rate=421999 (inst/sec) elapsed = 0:0:01:04 / Fri Dec 16 03:14:42 2016
GPGPU-Sim PTX: 27400000 instructions simulated : ctaid=(30,3,0) tid=(15,11,0)
GPGPU-Sim PTX: 27500000 instructions simulated : ctaid=(27,4,0) tid=(3,15,0)
GPGPU-Sim uArch: Shader 14 finished CTA #2 (72686,0), 5 CTAs running
GPGPU-Sim uArch: core: 14, cta: 2 initialized @(72687,0)
GPGPU-Sim PTX: 27600000 instructions simulated : ctaid=(12,5,0) tid=(15,5,0)
GPGPU-Sim uArch: Shader 13 finished CTA #0 (72714,0), 5 CTAs running
GPGPU-Sim uArch: core: 13, cta: 0 initialized @(72715,0)
GPGPU-Sim PTX: 27700000 instructions simulated : ctaid=(24,3,0) tid=(3,5,0)
GPGPU-Sim uArch: cycles simulated: 73000  inst.: 27347336 (ipc=374.6) sim_rate=420728 (inst/sec) elapsed = 0:0:01:05 / Fri Dec 16 03:14:43 2016
GPGPU-Sim PTX: 27800000 instructions simulated : ctaid=(26,4,0) tid=(7,2,0)
GPGPU-Sim uArch: Shader 4 finished CTA #1 (73348,0), 5 CTAs running
GPGPU-Sim uArch: core:  4, cta: 1 initialized @(73349,0)
GPGPU-Sim PTX: 27900000 instructions simulated : ctaid=(16,3,0) tid=(15,6,0)
GPGPU-Sim PTX: 28000000 instructions simulated : ctaid=(27,4,0) tid=(7,12,0)
GPGPU-Sim uArch: Shader 2 finished CTA #1 (73798,0), 5 CTAs running
GPGPU-Sim uArch: core:  2, cta: 1 initialized @(73799,0)
GPGPU-Sim uArch: cycles simulated: 74000  inst.: 27722624 (ipc=374.6) sim_rate=420039 (inst/sec) elapsed = 0:0:01:06 / Fri Dec 16 03:14:44 2016
GPGPU-Sim PTX: 28100000 instructions simulated : ctaid=(3,4,0) tid=(3,13,0)
GPGPU-Sim PTX: 28200000 instructions simulated : ctaid=(18,4,0) tid=(7,13,0)
GPGPU-Sim uArch: Shader 8 finished CTA #1 (74277,0), 5 CTAs running
GPGPU-Sim uArch: core:  8, cta: 1 initialized @(74278,0)
GPGPU-Sim PTX: 28300000 instructions simulated : ctaid=(9,4,0) tid=(7,2,0)
GPGPU-Sim PTX: 28400000 instructions simulated : ctaid=(19,5,0) tid=(15,10,0)
GPGPU-Sim PTX: 28500000 instructions simulated : ctaid=(7,4,0) tid=(7,3,0)
GPGPU-Sim uArch: Shader 13 finished CTA #1 (75210,0), 5 CTAs running
GPGPU-Sim uArch: core: 13, cta: 1 initialized @(75211,0)
GPGPU-Sim uArch: Shader 10 finished CTA #1 (75273,0), 5 CTAs running
GPGPU-Sim uArch: core: 10, cta: 1 initialized @(75274,0)
GPGPU-Sim PTX: 28600000 instructions simulated : ctaid=(8,4,0) tid=(7,10,0)
GPGPU-Sim uArch: cycles simulated: 75500  inst.: 28286608 (ipc=374.7) sim_rate=422188 (inst/sec) elapsed = 0:0:01:07 / Fri Dec 16 03:14:45 2016
GPGPU-Sim uArch: Shader 3 finished CTA #1 (75519,0), 5 CTAs running
GPGPU-Sim uArch: core:  3, cta: 1 initialized @(75520,0)
GPGPU-Sim PTX: 28700000 instructions simulated : ctaid=(3,4,0) tid=(7,1,0)
GPGPU-Sim uArch: Shader 12 finished CTA #0 (75826,0), 5 CTAs running
GPGPU-Sim uArch: core: 12, cta: 0 initialized @(75827,0)
GPGPU-Sim PTX: 28800000 instructions simulated : ctaid=(7,4,0) tid=(15,14,0)
GPGPU-Sim PTX: 28900000 instructions simulated : ctaid=(11,6,0) tid=(3,9,0)
GPGPU-Sim PTX: 29000000 instructions simulated : ctaid=(27,4,0) tid=(3,5,0)
GPGPU-Sim uArch: cycles simulated: 76500  inst.: 28658208 (ipc=374.6) sim_rate=421444 (inst/sec) elapsed = 0:0:01:08 / Fri Dec 16 03:14:46 2016
GPGPU-Sim uArch: Shader 9 finished CTA #1 (76571,0), 5 CTAs running
GPGPU-Sim uArch: core:  9, cta: 1 initialized @(76572,0)
GPGPU-Sim PTX: 29100000 instructions simulated : ctaid=(28,3,0) tid=(7,1,0)
GPGPU-Sim PTX: 29200000 instructions simulated : ctaid=(28,4,0) tid=(15,14,0)
GPGPU-Sim PTX: 29300000 instructions simulated : ctaid=(17,5,0) tid=(7,1,0)
GPGPU-Sim PTX: 29400000 instructions simulated : ctaid=(0,4,0) tid=(7,4,0)
GPGPU-Sim uArch: cycles simulated: 77500  inst.: 29039920 (ipc=374.7) sim_rate=420868 (inst/sec) elapsed = 0:0:01:09 / Fri Dec 16 03:14:47 2016
GPGPU-Sim uArch: Shader 7 finished CTA #2 (77568,0), 5 CTAs running
GPGPU-Sim uArch: core:  7, cta: 2 initialized @(77569,0)
GPGPU-Sim uArch: Shader 5 finished CTA #1 (77613,0), 5 CTAs running
GPGPU-Sim uArch: core:  5, cta: 1 initialized @(77614,0)
GPGPU-Sim PTX: 29500000 instructions simulated : ctaid=(30,4,0) tid=(15,9,0)
GPGPU-Sim uArch: Shader 12 finished CTA #1 (77719,0), 5 CTAs running
GPGPU-Sim uArch: core: 12, cta: 1 initialized @(77720,0)
GPGPU-Sim uArch: Shader 1 finished CTA #2 (77805,0), 5 CTAs running
GPGPU-Sim uArch: core:  1, cta: 2 initialized @(77806,0)
GPGPU-Sim PTX: 29600000 instructions simulated : ctaid=(17,6,0) tid=(15,4,0)
GPGPU-Sim PTX: 29700000 instructions simulated : ctaid=(30,3,0) tid=(7,8,0)
GPGPU-Sim PTX: 29800000 instructions simulated : ctaid=(26,3,0) tid=(7,13,0)
GPGPU-Sim uArch: cycles simulated: 78500  inst.: 29413304 (ipc=374.7) sim_rate=420190 (inst/sec) elapsed = 0:0:01:10 / Fri Dec 16 03:14:48 2016
GPGPU-Sim PTX: 29900000 instructions simulated : ctaid=(7,4,0) tid=(15,7,0)
GPGPU-Sim uArch: Shader 0 finished CTA #2 (78875,0), 5 CTAs running
GPGPU-Sim uArch: core:  0, cta: 2 initialized @(78876,0)
GPGPU-Sim PTX: 30000000 instructions simulated : ctaid=(26,3,0) tid=(7,7,0)
GPGPU-Sim uArch: Shader 8 finished CTA #2 (79308,0), 5 CTAs running
GPGPU-Sim uArch: core:  8, cta: 2 initialized @(79309,0)
GPGPU-Sim PTX: 30100000 instructions simulated : ctaid=(1,4,0) tid=(15,7,0)
GPGPU-Sim uArch: cycles simulated: 79500  inst.: 29733008 (ipc=374.0) sim_rate=418774 (inst/sec) elapsed = 0:0:01:11 / Fri Dec 16 03:14:49 2016
GPGPU-Sim PTX: 30200000 instructions simulated : ctaid=(0,4,0) tid=(15,6,0)
GPGPU-Sim uArch: Shader 6 finished CTA #1 (79730,0), 5 CTAs running
GPGPU-Sim uArch: core:  6, cta: 1 initialized @(79731,0)
GPGPU-Sim PTX: 30300000 instructions simulated : ctaid=(2,5,0) tid=(15,11,0)
GPGPU-Sim uArch: Shader 3 finished CTA #2 (80139,0), 5 CTAs running
GPGPU-Sim uArch: core:  3, cta: 2 initialized @(80140,0)
GPGPU-Sim PTX: 30400000 instructions simulated : ctaid=(28,3,0) tid=(3,9,0)
GPGPU-Sim uArch: Shader 5 finished CTA #2 (80235,0), 5 CTAs running
GPGPU-Sim uArch: core:  5, cta: 2 initialized @(80236,0)
GPGPU-Sim uArch: Shader 11 finished CTA #2 (80363,0), 5 CTAs running
GPGPU-Sim uArch: core: 11, cta: 2 initialized @(80364,0)
GPGPU-Sim PTX: 30500000 instructions simulated : ctaid=(22,4,0) tid=(7,8,0)
GPGPU-Sim uArch: cycles simulated: 80500  inst.: 30126488 (ipc=374.2) sim_rate=418423 (inst/sec) elapsed = 0:0:01:12 / Fri Dec 16 03:14:50 2016
GPGPU-Sim PTX: 30600000 instructions simulated : ctaid=(29,4,0) tid=(3,13,0)
GPGPU-Sim PTX: 30700000 instructions simulated : ctaid=(6,4,0) tid=(3,1,0)
GPGPU-Sim PTX: 30800000 instructions simulated : ctaid=(7,4,0) tid=(15,11,0)
GPGPU-Sim uArch: Shader 10 finished CTA #2 (81223,0), 5 CTAs running
GPGPU-Sim uArch: core: 10, cta: 2 initialized @(81224,0)
GPGPU-Sim PTX: 30900000 instructions simulated : ctaid=(1,6,0) tid=(7,3,0)
GPGPU-Sim uArch: cycles simulated: 81500  inst.: 30538944 (ipc=374.7) sim_rate=418341 (inst/sec) elapsed = 0:0:01:13 / Fri Dec 16 03:14:51 2016
GPGPU-Sim uArch: Shader 4 finished CTA #2 (81590,0), 5 CTAs running
GPGPU-Sim uArch: core:  4, cta: 2 initialized @(81591,0)
GPGPU-Sim PTX: 31000000 instructions simulated : ctaid=(25,6,0) tid=(7,13,0)
GPGPU-Sim PTX: 31100000 instructions simulated : ctaid=(16,6,0) tid=(7,7,0)
GPGPU-Sim uArch: Shader 6 finished CTA #2 (81948,0), 5 CTAs running
GPGPU-Sim uArch: core:  6, cta: 2 initialized @(81949,0)
GPGPU-Sim PTX: 31200000 instructions simulated : ctaid=(1,6,0) tid=(3,5,0)
GPGPU-Sim PTX: 31300000 instructions simulated : ctaid=(16,4,0) tid=(3,7,0)
GPGPU-Sim uArch: Shader 13 finished CTA #2 (82307,0), 5 CTAs running
GPGPU-Sim uArch: core: 13, cta: 2 initialized @(82308,0)
GPGPU-Sim uArch: Shader 12 finished CTA #2 (82437,0), 5 CTAs running
GPGPU-Sim uArch: core: 12, cta: 2 initialized @(82438,0)
GPGPU-Sim uArch: cycles simulated: 82500  inst.: 30966424 (ipc=375.4) sim_rate=418465 (inst/sec) elapsed = 0:0:01:14 / Fri Dec 16 03:14:52 2016
GPGPU-Sim PTX: 31400000 instructions simulated : ctaid=(7,5,0) tid=(7,7,0)
GPGPU-Sim PTX: 31500000 instructions simulated : ctaid=(15,5,0) tid=(15,12,0)
GPGPU-Sim PTX: 31600000 instructions simulated : ctaid=(16,4,0) tid=(15,2,0)
GPGPU-Sim PTX: 31700000 instructions simulated : ctaid=(10,4,0) tid=(15,11,0)
GPGPU-Sim uArch: Shader 7 finished CTA #3 (83342,0), 5 CTAs running
GPGPU-Sim uArch: core:  7, cta: 3 initialized @(83343,0)
GPGPU-Sim uArch: cycles simulated: 83500  inst.: 31373864 (ipc=375.7) sim_rate=418318 (inst/sec) elapsed = 0:0:01:15 / Fri Dec 16 03:14:53 2016
GPGPU-Sim PTX: 31800000 instructions simulated : ctaid=(28,4,0) tid=(15,6,0)
GPGPU-Sim PTX: 31900000 instructions simulated : ctaid=(30,6,0) tid=(3,9,0)
GPGPU-Sim uArch: Shader 2 finished CTA #2 (83826,0), 5 CTAs running
GPGPU-Sim uArch: core:  2, cta: 2 initialized @(83827,0)
GPGPU-Sim PTX: 32000000 instructions simulated : ctaid=(14,5,0) tid=(3,15,0)
GPGPU-Sim uArch: Shader 9 finished CTA #2 (84141,0), 5 CTAs running
GPGPU-Sim uArch: core:  9, cta: 2 initialized @(84142,0)
GPGPU-Sim PTX: 32100000 instructions simulated : ctaid=(21,4,0) tid=(15,14,0)
GPGPU-Sim PTX: 32200000 instructions simulated : ctaid=(11,4,0) tid=(7,14,0)
GPGPU-Sim PTX: 32300000 instructions simulated : ctaid=(11,5,0) tid=(15,11,0)
GPGPU-Sim PTX: 32400000 instructions simulated : ctaid=(21,5,0) tid=(3,3,0)
GPGPU-Sim uArch: cycles simulated: 85000  inst.: 31977168 (ipc=376.2) sim_rate=420752 (inst/sec) elapsed = 0:0:01:16 / Fri Dec 16 03:14:54 2016
GPGPU-Sim PTX: 32500000 instructions simulated : ctaid=(1,5,0) tid=(15,5,0)
GPGPU-Sim PTX: 32600000 instructions simulated : ctaid=(10,5,0) tid=(7,1,0)
GPGPU-Sim uArch: Shader 14 finished CTA #1 (85524,0), 5 CTAs running
GPGPU-Sim uArch: core: 14, cta: 1 initialized @(85525,0)
GPGPU-Sim PTX: 32700000 instructions simulated : ctaid=(19,5,0) tid=(15,11,0)
GPGPU-Sim uArch: Shader 8 finished CTA #3 (85936,0), 5 CTAs running
GPGPU-Sim uArch: core:  8, cta: 3 initialized @(85937,0)
GPGPU-Sim PTX: 32800000 instructions simulated : ctaid=(0,6,0) tid=(15,5,0)
GPGPU-Sim uArch: cycles simulated: 86000  inst.: 32377552 (ipc=376.5) sim_rate=420487 (inst/sec) elapsed = 0:0:01:17 / Fri Dec 16 03:14:55 2016
GPGPU-Sim PTX: 32900000 instructions simulated : ctaid=(14,6,0) tid=(15,2,0)
GPGPU-Sim PTX: 33000000 instructions simulated : ctaid=(12,5,0) tid=(7,6,0)
GPGPU-Sim PTX: 33100000 instructions simulated : ctaid=(11,6,0) tid=(7,2,0)
GPGPU-Sim PTX: 33200000 instructions simulated : ctaid=(0,5,0) tid=(7,14,0)
GPGPU-Sim uArch: cycles simulated: 87000  inst.: 32766864 (ipc=376.6) sim_rate=420088 (inst/sec) elapsed = 0:0:01:18 / Fri Dec 16 03:14:56 2016
GPGPU-Sim PTX: 33300000 instructions simulated : ctaid=(24,5,0) tid=(3,5,0)
GPGPU-Sim PTX: 33400000 instructions simulated : ctaid=(6,5,0) tid=(15,10,0)
[...]
traffic_breakdown_coretomem[CONST_ACC_R] = 120 {8:15,}
traffic_breakdown_coretomem[GLOBAL_ACC_R] = 3941544 {8:492693,}
traffic_breakdown_coretomem[GLOBAL_ACC_W] = 1179648 {72:16384,}
traffic_breakdown_coretomem[INST_ACC_R] = 720 {8:90,}
traffic_breakdown_memtocore[CONST_ACC_R] = 1080 {72:15,}
traffic_breakdown_memtocore[GLOBAL_ACC_R] = 67006248 {136:492693,}
traffic_breakdown_memtocore[GLOBAL_ACC_W] = 131072 {8:16384,}
traffic_breakdown_memtocore[INST_ACC_R] = 12240 {136:90,}
maxmrqlatency = 270 
maxdqlatency = 0 
maxmflatency = 965 
averagemflatency = 253 
max_icnt2mem_latency = 665 
max_icnt2sh_latency = 524102 
mrq_lat_table:8708 	406 	845 	3147 	5042 	4195 	2874 	307 	2 	0 	0 	0 	0 	0 	0 	0 	0 	0 	0 	0 	0 	0 	0 	0 	0 	0 	0 	0 	0 	0 	0 	0 	
dq_lat_table:0 	0 	0 	0 	0 	0 	0 	0 	0 	0 	0 	0 	0 	0 	0 	0 	0 	0 	0 	0 	0 	0 	0 	0 	0 	0 	0 	0 	0 	0 	0 	0 	
mf_lat_table:0 	0 	0 	0 	0 	0 	0 	305845 	194642 	8605 	0 	0 	0 	0 	0 	0 	0 	0 	0 	0 	0 	0 	0 	0 	0 	0 	0 	0 	0 	0 	0 	0 	
icnt2mem_lat_table:0 	0 	0 	382766 	43882 	26875 	25839 	25183 	4564 	73 	0 	0 	0 	0 	0 	0 	0 	0 	0 	0 	0 	0 	0 	0 	
icnt2sh_lat_table:0 	0 	0 	27840 	243034 	195531 	26195 	108 	0 	0 	0 	0 	0 	0 	384 	1104 	2080 	4210 	8606 	0 	0 	0 	0 	0 	
mf_lat_pw_table:0 	0 	0 	0 	0 	0 	0 	640 	397 	4 	0 	0 	0 	0 	0 	0 	0 	0 	0 	0 	0 	0 	0 	0 	0 	0 	0 	0 	0 	0 	0 	0 	
maximum concurrent accesses to same row:
dram[0]:        64        64        64        64        73        72        64        64        32        32        52        54        70        64        69        69 
dram[1]:        64        67        64        69        66        66        67        64        32        37        65        64        65        64        70        66 
dram[2]:        64        64        64        64        73        71        64        64        32        32        52        54        64        69        72        68 
dram[3]:        69        64        69        64        66        67        64        67        40        32        64        65        64        65        68        68 
dram[4]:        64        64        64        64        72        71        64        64        32        32        54        54        69        64        67        71 
dram[5]:        64        67        64        70        67        66        66        64        32        35        64        64        66        64        70        66 
maximum service time to same row:
dram[0]:    189519    189550    198841    190460    193531    188744    192117    189997    162011    138500    188569    189174    183194    192648    185516    194882 
dram[1]:    194759    186050    194494    190416    188362    190812    189056    194383    144731    150714    172897    175586    186809    193454    192757    188364 
dram[2]:    189260    189726    190425    198802    188657    193541    190028    192366    138403    161771    189009    188635    192484    183383    194978    185516 
dram[3]:    186056    194748    190469    194494    190797    188407    194366    189056    150731    144585    175511    172878    193468    186780    188356    192758 
dram[4]:    189572    189297    198778    190469    193530    188733    192494    189959    162080    138338    188724    189119    183199    192522    185572    194886 
dram[5]:    194760    186055    194485    190420    188388    190715    189063    194366    144566    150732    172971    175553    186697    193386    192688    188343 
average row accesses per activate:
dram[0]:  6.767442  6.857143  8.029411  8.393939  8.375000  7.764706 14.000000 16.000000  8.960000  8.000000  7.189189  6.232558  8.228572  6.260870  4.430769  4.571429 
dram[1]:  7.837838  8.470589  8.085714  8.593750  7.052631  8.375000 20.363636 17.230770  7.724138  7.225806 12.571428 14.105263  8.055555  8.257143  5.388889  4.916667 
dram[2]:  7.435897  8.000000  8.393939  8.058824  8.312500  6.947369 16.000000 16.000000  7.466667  9.333333  6.769231  7.243243  6.857143  6.857143  4.446154  4.430769 
dram[3]:  8.470589  8.470589  8.625000  8.114285  8.375000  6.600000 17.230770 20.363636  8.296296  7.225806 14.000000 12.761905  8.470589  8.818182  4.609375  5.705883 
dram[4]:  7.384615  7.578948  8.029411  8.424242  7.882353  8.451612 16.000000 16.000000  9.826087  9.333333  7.324324  6.536585  6.857143  6.400000  4.571429  4.171429 
dram[5]:  8.000000  8.470589  8.028571  8.147058  8.121212  8.250000 20.363636 17.230770  6.787879  7.724138 11.652174 15.941176  8.818182  8.000000  5.576923  5.000000 
average row locality = 25526/3294 = 7.749241
number of total memory accesses made:
dram[0]:         0         0         0         0         0         0         0         0         0         0         0         0         0         0         0         0 
dram[1]:         0         0         0         0         0         0         0         0         0         0         0         0         0         0         0         0 
dram[2]:         0         0         0         0         0         0         0         0         0         0         0         0         0         0         0         0 
dram[3]:         0         0         0         0         0         0         0         0         0         0         0         0         0         0         0         0 
dram[4]:         0         0         0         0         0         0         0         0         0         0         0         0         0         0         0         0 
dram[5]:         0         0         0         0         0         0         0         0         0         0         0         0         0         0         0         0 
total accesses: 0
min_bank_accesses = 0!
min_chip_accesses = 0!
number of total read accesses:
dram[0]:       131       128       128       128       128       128       128       128       128       128       128       128       128       128       128       128 
dram[1]:       130       128       128       128       128       128       128       128       128       128       128       128       128       128       128       128 
dram[2]:       130       128       128       128       128       128       128       128       128       128       128       128       128       128       128       128 
dram[3]:       128       128       128       128       128       128       128       128       128       128       128       128       128       128       128       128 
dram[4]:       128       128       128       128       128       128       128       128       128       128       128       128       128       128       128       128 
dram[5]:       128       128       128       128       128       128       128       128       128       128       128       128       128       128       128       128 
total reads: 12295
bank skew: 131/128 = 1.02
chip skew: 2051/2048 = 1.00
number of total write accesses:
dram[0]:       160       160       145       149       140       136        96        96        96        96       138       140       160       160       160       160 
dram[1]:       160       160       155       147       140       140        96        96        96        96       136       140       162       161       163       167 
dram[2]:       160       160       149       146       138       136        96        96        96        96       136       140       160       160       161       160 
dram[3]:       160       160       148       156       140       136        96        96        96        96       138       140       160       163       167       163 
dram[4]:       160       160       145       150       140       134        96        96        98        96       143       140       160       160       160       164 
dram[5]:       160       160       153       149       140       136        96        96        96        96       140       143       163       160       162       167 
total reads: 13231
bank skew: 167/96 = 1.74
chip skew: 2217/2190 = 1.01
average mf latency per bank:
dram[0]:       4929      4951      5159      5126      6288      6346     11833     11476     11242     10692      6292      6375      4058      4225      3817      4271
dram[1]:       2700      2691      2735      2745      3636      3899      6765      6567      6838      6531      3814      3567      2507      2442      2215      2017
dram[2]:       5043      4916      5219      5062      6383      6608     11883     11235     11469     10951      6467      6039      4149      3949      4145      3598
dram[3]:       2737      2613      2804      2639      3710      3955      6734      6608      6814      6575      3719      3451      2466      2426      2257      1926
dram[4]:       4787      5200      5021      5250      6066      6891     11201     12103     10476     11533      6045      6426      3669      4059      4013      3697
dram[5]:       2685      2734      2678      2835      3809      4459      6608      6937      6637      6793      3612      3482      2474      2410      2068      1830
maximum mf latency per bank:
dram[0]:        834       836       809       823       881       874       822       803       901       821       754       829       649       728       792       738
dram[1]:        590       536       550       571       511       723       551       674       589       576       474       850       597       588       621       582
dram[2]:        796       821       847       809       868       882       864       881       899       869       682       773       825       713       823       722
dram[3]:        603       687       575       479       581       528       574       478       579       557       604       523       529       521       705       597
dram[4]:        858       840       821       786       893       809       790       809       857       809       745       818       913       704       751       718
dram[5]:        553       644       542       596       651       691       604       640       573       667       582       965       514       528       575       570

Number of Memory Banks Accessed per Memory Operation per Warp (from 0):
0	0	0	0	0	0	0	0	0	0	0	0	0	0	0	0	0	0	0	0	0	0	0	0	0	0	0	0	0	0	0	0	0	0	0	0	0	0	0	0	0	0	0	0	0	0	0	0	0	0	0	0	0	0	0	0	0	0	0	0	0	0	0	0	0	0	0	0	0	0	0	0	0	0	0	0	0	0	0	0	0	0	0	0	0	0	0	0	0	0	0	0	0	0	0	0	
Average # of Memory Banks Accessed per Memory Operation per Warp=-nan

position of mrq chosen
0	0	0	0	0	0	0	0	0	0	0	0	0	0	0	0	

average position of mrq chosen = -nan
Memory Partition 0: 
Cache L2_bank_000:
MSHR contents

Cache L2_bank_001:
MSHR contents

In Dram Latency Queue (total = 0): 
DRAM[0]: 16 bks, busW=4 BL=8 CL=12, tRRD=2 tCCD=6, tRCD=12 tRAS=28 tRP=12 tRC=40
n_cmd=691815 n_nop=683544 n_act=590 n_pre=574 n_req=4243 n_rd=4102 n_write=3005 bw_util=0.02055
n_activity=57638 dram_eff=0.2466
bk0: 262a 687754i bk1: 256a 687849i bk2: 256a 687944i bk3: 256a 688027i bk4: 256a 688180i bk5: 256a 688154i bk6: 256a 688858i bk7: 256a 689158i bk8: 256a 689121i bk9: 256a 689171i bk10: 256a 688308i bk11: 256a 688063i bk12: 256a 688141i bk13: 256a 688010i bk14: 256a 686939i bk15: 256a 687081i 
dram_util_bins: 0 0 0 0 0 0 0 0 0 0
dram_eff_bins: 0 0 0 0 0 0 0 0 0 0
mrqq: max=16 avg=0.204023
Memory Partition 1: 
Cache L2_bank_002:
MSHR contents

Cache L2_bank_003:
MSHR contents

In Dram Latency Queue (total = 0): 
DRAM[1]: 16 bks, busW=4 BL=8 CL=12, tRRD=2 tCCD=6, tRCD=12 tRAS=28 tRP=12 tRC=40
n_cmd=691815 n_nop=683690 n_act=517 n_pre=501 n_req=4265 n_rd=4100 n_write=3007 bw_util=0.02055
n_activity=55660 dram_eff=0.2554
bk0: 260a 688122i bk1: 256a 688246i bk2: 256a 688075i bk3: 256a 688214i bk4: 256a 688365i bk5: 256a 688473i bk6: 256a 689393i bk7: 256a 689351i bk8: 256a 689083i bk9: 256a 689013i bk10: 256a 688510i bk11: 256a 688314i bk12: 256a 688164i bk13: 256a 688179i bk14: 256a 687022i bk15: 256a 686998i 
dram_util_bins: 0 0 0 0 0 0 0 0 0 0
dram_eff_bins: 0 0 0 0 0 0 0 0 0 0
mrqq: max=16 avg=0.205285
Memory Partition 2: 
Cache L2_bank_004:
MSHR contents

Cache L2_bank_005:
MSHR contents

In Dram Latency Queue (total = 0): 
DRAM[2]: 16 bks, busW=4 BL=8 CL=12, tRRD=2 tCCD=6, tRCD=12 tRAS=28 tRP=12 tRC=40
n_cmd=691815 n_nop=683558 n_act=584 n_pre=568 n_req=4240 n_rd=4100 n_write=3005 bw_util=0.02054
n_activity=57056 dram_eff=0.2491
bk0: 260a 687878i bk1: 256a 688044i bk2: 256a 687988i bk3: 256a 687940i bk4: 256a 688140i bk5: 256a 687867i bk6: 256a 688896i bk7: 256a 688913i bk8: 256a 689009i bk9: 256a 689122i bk10: 256a 688080i bk11: 256a 688061i bk12: 256a 688138i bk13: 256a 688057i bk14: 256a 687100i bk15: 256a 686879i 
dram_util_bins: 0 0 0 0 0 0 0 0 0 0
dram_eff_bins: 0 0 0 0 0 0 0 0 0 0
mrqq: max=16 avg=0.203316
Memory Partition 3: 
Cache L2_bank_006:
MSHR contents

Cache L2_bank_007:
MSHR contents

In Dram Latency Queue (total = 0): 
DRAM[3]: 16 bks, busW=4 BL=8 CL=12, tRRD=2 tCCD=6, tRCD=12 tRAS=28 tRP=12 tRC=40
n_cmd=691815 n_nop=683710 n_act=511 n_pre=495 n_req=4263 n_rd=4096 n_write=3003 bw_util=0.02052
n_activity=54930 dram_eff=0.2585
bk0: 256a 688274i bk1: 256a 688166i bk2: 256a 688193i bk3: 256a 687995i bk4: 256a 688487i bk5: 256a 688413i bk6: 256a 689284i bk7: 256a 689373i bk8: 256a 689139i bk9: 256a 689057i bk10: 256a 688499i bk11: 256a 688344i bk12: 256a 688302i bk13: 256a 688150i bk14: 256a 686874i bk15: 256a 686860i 
dram_util_bins: 0 0 0 0 0 0 0 0 0 0
dram_eff_bins: 0 0 0 0 0 0 0 0 0 0
mrqq: max=16 avg=0.202939
Memory Partition 4: 
Cache L2_bank_008:
MSHR contents

Cache L2_bank_009:
MSHR contents

In Dram Latency Queue (total = 0): 
DRAM[4]: 16 bks, busW=4 BL=8 CL=12, tRRD=2 tCCD=6, tRCD=12 tRAS=28 tRP=12 tRC=40
n_cmd=691815 n_nop=683553 n_act=582 n_pre=566 n_req=4250 n_rd=4096 n_write=3018 bw_util=0.02057
n_activity=57595 dram_eff=0.247
bk0: 256a 687998i bk1: 256a 688021i bk2: 256a 688111i bk3: 256a 688081i bk4: 256a 688219i bk5: 256a 688333i bk6: 256a 689112i bk7: 256a 688936i bk8: 256a 689140i bk9: 256a 689102i bk10: 256a 688137i bk11: 256a 687970i bk12: 256a 688138i bk13: 256a 688019i bk14: 256a 687138i bk15: 256a 686840i 
dram_util_bins: 0 0 0 0 0 0 0 0 0 0
dram_eff_bins: 0 0 0 0 0 0 0 0 0 0
mrqq: max=15 avg=0.203297
Memory Partition 5: 
Cache L2_bank_010:
MSHR contents

Cache L2_bank_011:
MSHR contents

In Dram Latency Queue (total = 0): 
DRAM[5]: 16 bks, busW=4 BL=8 CL=12, tRRD=2 tCCD=6, tRCD=12 tRAS=28 tRP=12 tRC=40
n_cmd=691815 n_nop=683703 n_act=510 n_pre=494 n_req=4265 n_rd=4096 n_write=3012 bw_util=0.02055
n_activity=54993 dram_eff=0.2585
bk0: 256a 688183i bk1: 256a 688287i bk2: 256a 688039i bk3: 256a 688148i bk4: 256a 688444i bk5: 256a 688497i bk6: 256a 689381i bk7: 256a 689313i bk8: 256a 688972i bk9: 256a 688993i bk10: 256a 688471i bk11: 256a 688437i bk12: 256a 688112i bk13: 256a 688219i bk14: 256a 686954i bk15: 256a 686796i 
dram_util_bins: 0 0 0 0 0 0 0 0 0 0
dram_eff_bins: 0 0 0 0 0 0 0 0 0 0
mrqq: max=16 avg=0.202544

========= L2 cache stats =========
L2_cache_bank[0]: Access = 49885, Miss = 1027, Miss_rate = 0.021, Pending_hits = 64, Reservation_fails = 519
L2_cache_bank[1]: Access = 49530, Miss = 1024, Miss_rate = 0.021, Pending_hits = 52, Reservation_fails = 240
L2_cache_bank[2]: Access = 35269, Miss = 1026, Miss_rate = 0.029, Pending_hits = 50, Reservation_fails = 217
L2_cache_bank[3]: Access = 35110, Miss = 1024, Miss_rate = 0.029, Pending_hits = 42, Reservation_fails = 19
L2_cache_bank[4]: Access = 49877, Miss = 1026, Miss_rate = 0.021, Pending_hits = 55, Reservation_fails = 139
L2_cache_bank[5]: Access = 49785, Miss = 1024, Miss_rate = 0.021, Pending_hits = 62, Reservation_fails = 207
L2_cache_bank[6]: Access = 35211, Miss = 1024, Miss_rate = 0.029, Pending_hits = 48, Reservation_fails = 14
L2_cache_bank[7]: Access = 35073, Miss = 1024, Miss_rate = 0.029, Pending_hits = 47, Reservation_fails = 18
L2_cache_bank[8]: Access = 49538, Miss = 1024, Miss_rate = 0.021, Pending_hits = 57, Reservation_fails = 233
L2_cache_bank[9]: Access = 49750, Miss = 1024, Miss_rate = 0.021, Pending_hits = 65, Reservation_fails = 160
L2_cache_bank[10]: Access = 35101, Miss = 1024, Miss_rate = 0.029, Pending_hits = 39, Reservation_fails = 21
L2_cache_bank[11]: Access = 35053, Miss = 1024, Miss_rate = 0.029, Pending_hits = 49, Reservation_fails = 5
L2_total_cache_accesses = 509182
L2_total_cache_misses = 12295
L2_total_cache_miss_rate = 0.0241
L2_total_cache_pending_hits = 630
L2_total_cache_reservation_fails = 1792
L2_total_cache_breakdown:
	L2_cache_stats_breakdown[GLOBAL_ACC_R][HIT] = 488202
	L2_cache_stats_breakdown[GLOBAL_ACC_R][HIT_RESERVED] = 395
	L2_cache_stats_breakdown[GLOBAL_ACC_R][MISS] = 4096
	L2_cache_stats_breakdown[GLOBAL_ACC_R][RESERVATION_FAIL] = 829
	L2_cache_stats_breakdown[CONST_ACC_R][HIT] = 11
	L2_cache_stats_breakdown[CONST_ACC_R][HIT_RESERVED] = 3
	L2_cache_stats_breakdown[CONST_ACC_R][MISS] = 1
	L2_cache_stats_breakdown[CONST_ACC_R][RESERVATION_FAIL] = 109
	L2_cache_stats_breakdown[GLOBAL_ACC_W][HIT] = 7972
	L2_cache_stats_breakdown[GLOBAL_ACC_W][HIT_RESERVED] = 220
	L2_cache_stats_breakdown[GLOBAL_ACC_W][MISS] = 8192
	L2_cache_stats_breakdown[GLOBAL_ACC_W][RESERVATION_FAIL] = 431
	L2_cache_stats_breakdown[INST_ACC_R][HIT] = 72
	L2_cache_stats_breakdown[INST_ACC_R][HIT_RESERVED] = 12
	L2_cache_stats_breakdown[INST_ACC_R][MISS] = 6
	L2_cache_stats_breakdown[INST_ACC_R][RESERVATION_FAIL] = 423
L2_cache_data_port_util = 0.314
L2_cache_fill_port_util = 0.008

icnt_total_pkts_mem_to_simt=2480344
icnt_total_pkts_simt_to_mem=541950
LD_mem_lat_dist  0 0 0 0 0 0 0 0 0 0 0 0 0 0 0 0 0 0 0 0 0 0 0 0 0 0 0
ST_mem_lat_dist  0 0 0 0 0 0 0 0 0 0 0 0 0 0 0 0 0 0 0 0 0 0 0 0 0 0 0
----------------------------Interconnect-DETAILS--------------------------------
Class 0:
Packet latency average = 22.9849
	minimum = 6
	maximum = 508
Network latency average = 18.1597
	minimum = 6
	maximum = 463
Slowest packet = 2685
Flit latency average = 16.6963
	minimum = 6
	maximum = 463
Slowest flit = 7095
Fragmentation average = 0.00839386
	minimum = 0
	maximum = 301
Injected packet rate average = 0.0719652
	minimum = 0.0605587 (at node 13)
	maximum = 0.0951817 (at node 15)
Accepted packet rate average = 0.0719652
	minimum = 0.0605587 (at node 13)
	maximum = 0.0951817 (at node 15)
Injected flit rate average = 0.213578
	minimum = 0.0647716 (at node 13)
	maximum = 0.465441 (at node 15)
Accepted flit rate average= 0.213578
	minimum = 0.072087 (at node 26)
	maximum = 0.345487 (at node 9)
Injected packet length average = 2.96779
Accepted packet length average = 2.96779
Total in-flight flits = 0 (0 measured)
====== Overall Traffic Statistics ======
====== Traffic class 0 ======
Packet latency average = 22.9849 (1 samples)
	minimum = 6 (1 samples)
	maximum = 508 (1 samples)
Network latency average = 18.1597 (1 samples)
	minimum = 6 (1 samples)
	maximum = 463 (1 samples)
Flit latency average = 16.6963 (1 samples)
	minimum = 6 (1 samples)
	maximum = 463 (1 samples)
Fragmentation average = 0.00839386 (1 samples)
	minimum = 0 (1 samples)
	maximum = 301 (1 samples)
Injected packet rate average = 0.0719652 (1 samples)
	minimum = 0.0605587 (1 samples)
	maximum = 0.0951817 (1 samples)
Accepted packet rate average = 0.0719652 (1 samples)
	minimum = 0.0605587 (1 samples)
	maximum = 0.0951817 (1 samples)
Injected flit rate average = 0.213578 (1 samples)
	minimum = 0.0647716 (1 samples)
	maximum = 0.465441 (1 samples)
Accepted flit rate average = 0.213578 (1 samples)
	minimum = 0.072087 (1 samples)
	maximum = 0.345487 (1 samples)
Injected packet size average = 2.96779 (1 samples)
Accepted packet size average = 2.96779 (1 samples)
Hops average = 1 (1 samples)
----------------------------END-of-Interconnect-DETAILS-------------------------


gpgpu_simulation_time = 0 days, 0 hrs, 8 min, 41 sec (521 sec)
gpgpu_simulation_rate = 388939 (inst/sec)
gpgpu_simulation_rate = 1005 (cycle/sec)
The GPU Elapsed Time:520.906622 Sec.
The CPU Elapsed Time:0.496447 Sec.
Verifying
Verify Success!!
