

        *** GPGPU-Sim Simulator Version 3.2.2  [build 0] ***


GPGPU-Sim PTX: simulation mode 0 (can change with PTX_SIM_MODE_FUNC environment variable:
               1=functional simulation only, 0=detailed performance simulator)
GPGPU-Sim PTX: overriding embedded ptx with ptx file (PTX_SIM_USE_PTX_FILE is set)
DEBUG2 File name parsing = mmp.ptx
GPGPU-Sim: Configuration options:

-network_mode                           1 # Interconnection network mode
-inter_config_file   config_fermi_islip.icnt # Interconnection network config file
-gpgpu_ptx_use_cuobjdump                    1 # Use cuobjdump to extract ptx and sass from binaries
-gpgpu_experimental_lib_support                    0 # Try to extract code from cuda libraries [Broken because of unknown cudaGetExportTable]
-gpgpu_ptx_convert_to_ptxplus                    0 # Convert SASS (native ISA) to ptxplus and run ptxplus
-gpgpu_ptx_force_max_capability                   20 # Force maximum compute capability
-gpgpu_ptx_inst_debug_to_file                    0 # Dump executed instructions' debug information to file
-gpgpu_ptx_inst_debug_file       inst_debug.txt # Executed instructions' debug output file
-gpgpu_ptx_inst_debug_thread_uid                    1 # Thread UID for executed instructions' debug output
-gpgpu_simd_model                       1 # 1 = post-dominator
-gpgpu_shader_core_pipeline              1536:32 # shader core pipeline config, i.e., {<nthread>:<warpsize>}
-gpgpu_tex_cache:l1  4:128:24,L:R:m:N:L,F:128:4,128:2 # per-shader L1 texture cache  (READ-ONLY) config  {<nsets>:<bsize>:<assoc>,<rep>:<wr>:<alloc>:<wr_alloc>,<mshr>:<N>:<merge>,<mq>:<rf>}
-gpgpu_const_cache:l1 64:64:2,L:R:f:N:L,A:2:32,4 # per-shader L1 constant memory cache  (READ-ONLY) config  {<nsets>:<bsize>:<assoc>,<rep>:<wr>:<alloc>:<wr_alloc>,<mshr>:<N>:<merge>,<mq>} 
-gpgpu_cache:il1     4:128:4,L:R:f:N:L,A:2:32,4 # shader L1 instruction cache config  {<nsets>:<bsize>:<assoc>,<rep>:<wr>:<alloc>:<wr_alloc>,<mshr>:<N>:<merge>,<mq>} 
-gpgpu_cache:dl1     32:128:4,L:L:m:N:H,A:32:8,8 # per-shader L1 data cache config  {<nsets>:<bsize>:<assoc>,<rep>:<wr>:<alloc>:<wr_alloc>,<mshr>:<N>:<merge>,<mq> | none}
-gpgpu_cache:dl1PrefL1                 none # per-shader L1 data cache config  {<nsets>:<bsize>:<assoc>,<rep>:<wr>:<alloc>:<wr_alloc>,<mshr>:<N>:<merge>,<mq> | none}
-gpgpu_cache:dl1PreShared                 none # per-shader L1 data cache config  {<nsets>:<bsize>:<assoc>,<rep>:<wr>:<alloc>:<wr_alloc>,<mshr>:<N>:<merge>,<mq> | none}
-gmem_skip_L1D                          0 # global memory access skip L1D cache (implements -Xptxas -dlcm=cg, default=no skip)
-gpgpu_perfect_mem                      0 # enable perfect memory mode (no cache miss)
-n_regfile_gating_group                    4 # group of lanes that should be read/written together)
-gpgpu_clock_gated_reg_file                    0 # enable clock gated reg file for power calculations
-gpgpu_clock_gated_lanes                    0 # enable clock gated lanes for power calculations
-gpgpu_shader_registers                32768 # Number of registers per shader core. Limits number of concurrent CTAs. (default 8192)
-gpgpu_shader_cta                       8 # Maximum number of concurrent CTAs in shader (default 8)
-gpgpu_num_cta_barriers                   16 # Maximum number of named barriers per CTA (default 16)
-gpgpu_n_clusters                      15 # number of processing clusters
-gpgpu_n_cores_per_cluster                    1 # number of simd cores per cluster
-gpgpu_n_cluster_ejection_buffer_size                    8 # number of packets in ejection buffer
-gpgpu_n_ldst_response_buffer_size                    2 # number of response packets in ld/st unit ejection buffer
-gpgpu_shmem_size                   16384 # Size of shared memory per shader core (default 16kB)
-gpgpu_shmem_size                   49152 # Size of shared memory per shader core (default 16kB)
-gpgpu_shmem_size_PrefL1                16384 # Size of shared memory per shader core (default 16kB)
-gpgpu_shmem_size_PrefShared                16384 # Size of shared memory per shader core (default 16kB)
-gpgpu_shmem_num_banks                   32 # Number of banks in the shared memory in each shader core (default 16)
-gpgpu_shmem_limited_broadcast                    0 # Limit shared memory to do one broadcast per cycle (default on)
-gpgpu_shmem_warp_parts                    1 # Number of portions a warp is divided into for shared memory bank conflict check 
-gpgpu_warpdistro_shader                   -1 # Specify which shader core to collect the warp size distribution from
-gpgpu_warp_issue_shader                    0 # Specify which shader core to collect the warp issue distribution from
-gpgpu_local_mem_map                    1 # Mapping from local memory space address to simulated GPU physical address space (default = enabled)
-gpgpu_num_reg_banks                   16 # Number of register banks (default = 8)
-gpgpu_reg_bank_use_warp_id                    0 # Use warp ID in mapping registers to banks (default = off)
-gpgpu_operand_collector_num_units_sp                    6 # number of collector units (default = 4)
-gpgpu_operand_collector_num_units_sfu                    8 # number of collector units (default = 4)
-gpgpu_operand_collector_num_units_mem                    2 # number of collector units (default = 2)
-gpgpu_operand_collector_num_units_gen                    0 # number of collector units (default = 0)
-gpgpu_operand_collector_num_in_ports_sp                    2 # number of collector unit in ports (default = 1)
-gpgpu_operand_collector_num_in_ports_sfu                    1 # number of collector unit in ports (default = 1)
-gpgpu_operand_collector_num_in_ports_mem                    1 # number of collector unit in ports (default = 1)
-gpgpu_operand_collector_num_in_ports_gen                    0 # number of collector unit in ports (default = 0)
-gpgpu_operand_collector_num_out_ports_sp                    2 # number of collector unit in ports (default = 1)
-gpgpu_operand_collector_num_out_ports_sfu                    1 # number of collector unit in ports (default = 1)
-gpgpu_operand_collector_num_out_ports_mem                    1 # number of collector unit in ports (default = 1)
-gpgpu_operand_collector_num_out_ports_gen                    0 # number of collector unit in ports (default = 0)
-gpgpu_coalesce_arch                   13 # Coalescing arch (default = 13, anything else is off for now)
-gpgpu_num_sched_per_core                    2 # Number of warp schedulers per core
-gpgpu_max_insn_issue_per_warp                    1 # Max number of instructions that can be issued per warp in one cycle by scheduler
-gpgpu_simt_core_sim_order                    1 # Select the simulation order of cores in a cluster (0=Fix, 1=Round-Robin)
-gpgpu_pipeline_widths        2,1,1,2,1,1,2 # Pipeline widths ID_OC_SP,ID_OC_SFU,ID_OC_MEM,OC_EX_SP,OC_EX_SFU,OC_EX_MEM,EX_WB
-gpgpu_num_sp_units                     2 # Number of SP units (default=1)
-gpgpu_num_sfu_units                    1 # Number of SF units (default=1)
-gpgpu_num_mem_units                    1 # Number if ldst units (default=1) WARNING: not hooked up to anything
-gpgpu_scheduler                      gto # Scheduler configuration: < lrr | gto | two_level_active > If two_level_active:<num_active_warps>:<inner_prioritization>:<outer_prioritization>For complete list of prioritization values see shader.h enum scheduler_prioritization_typeDefault: gto
-gpgpu_dram_scheduler                    1 # 0 = fifo, 1 = FR-FCFS (defaul)
-gpgpu_dram_partition_queues              8:8:8:8 # i2$:$2d:d2$:$2i
-l2_ideal                               0 # Use a ideal L2 cache that always hit
-gpgpu_cache:dl2     64:128:8,L:B:m:W:L,A:32:4,4:0,32 # unified banked L2 data cache config  {<nsets>:<bsize>:<assoc>,<rep>:<wr>:<alloc>:<wr_alloc>,<mshr>:<N>:<merge>,<mq>}
-gpgpu_cache:dl2_texture_only                    0 # L2 cache used for texture only
-gpgpu_n_mem                            6 # number of memory modules (e.g. memory controllers) in gpu
-gpgpu_n_sub_partition_per_mchannel                    2 # number of memory subpartition in each memory module
-gpgpu_n_mem_per_ctrlr                    2 # number of memory chips per memory controller
-gpgpu_memlatency_stat                   14 # track and display latency statistics 0x2 enables MC, 0x4 enables queue logs
-gpgpu_frfcfs_dram_sched_queue_size                   16 # 0 = unlimited (default); # entries per chip
-gpgpu_dram_return_queue_size                  116 # 0 = unlimited (default); # entries per chip
-gpgpu_dram_buswidth                    4 # default = 4 bytes (8 bytes per cycle at DDR)
-gpgpu_dram_burst_length                    8 # Burst length of each DRAM request (default = 4 data bus cycle)
-dram_data_command_freq_ratio                    4 # Frequency ratio between DRAM data bus and command bus (default = 2 times, i.e. DDR)
-gpgpu_dram_timing_opt nbk=16:CCD=2:RRD=6:RCD=12:RAS=28:RP=12:RC=40: CL=12:WL=4:CDLR=5:WR=12:nbkgrp=4:CCDL=3:RTPL=2 # DRAM timing parameters = {nbk:tCCD:tRRD:tRCD:tRAS:tRP:tRC:CL:WL:tCDLR:tWR:nbkgrp:tCCDL:tRTPL}
-rop_latency                          120 # ROP queue latency (default 85)
-dram_latency                         100 # DRAM latency (default 30)
-gpgpu_mem_addr_mapping dramid@8;00000000.00000000.00000000.00000000.0000RRRR.RRRRRRRR.BBBCCCCB.CCSSSSSS # mapping memory address to dram model {dramid@<start bit>;<memory address map>}
-gpgpu_mem_addr_test                    0 # run sweep test to check address mapping for aliased address
-gpgpu_mem_address_mask                    1 # 0 = old addressing mask, 1 = new addressing mask, 2 = new add. mask + flipped bank sel and chip sel bits
-gpuwattch_xml_file  gpuwattch_gtx480.xml # GPUWattch XML file
-power_simulation_enabled                    1 # Turn on power simulator (1=On, 0=Off)
-power_per_cycle_dump                    0 # Dump detailed power output each cycle
-power_trace_enabled                    0 # produce a file for the power trace (1=On, 0=Off)
-power_trace_zlevel                     6 # Compression level of the power trace output log (0=no comp, 9=highest)
-steady_power_levels_enabled                    0 # produce a file for the steady power levels (1=On, 0=Off)
-steady_state_definition                  8:4 # allowed deviation:number of samples
-gpgpu_max_cycle                        0 # terminates gpu simulation early (0 = no limit)
-gpgpu_max_insn                         0 # terminates gpu simulation early (0 = no limit)
-gpgpu_max_cta                          0 # terminates gpu simulation early (0 = no limit)
-gpgpu_runtime_stat                   500 # display runtime statistics such as dram utilization {<freq>:<flag>}
-liveness_message_freq                    1 # Minimum number of seconds between simulation liveness messages (0 = always print)
-gpgpu_flush_l1_cache                    0 # Flush L1 cache at the end of each kernel call
-gpgpu_flush_l2_cache                    0 # Flush L2 cache at the end of each kernel call
-gpgpu_deadlock_detect                    1 # Stop the simulation at deadlock (1=on (default), 0=off)
-gpgpu_ptx_instruction_classification                    0 # if enabled will classify ptx instruction types per kernel (Max 255 kernels now)
-gpgpu_ptx_sim_mode                     0 # Select between Performance (default) or Functional simulation (1)
-gpgpu_clock_domains 700.0:700.0:700.0:924.0 # Clock Domain Frequencies in MhZ {<Core Clock>:<ICNT Clock>:<L2 Clock>:<DRAM Clock>}
-gpgpu_max_concurrent_kernel                    8 # maximum kernels that can run concurrently on GPU
-gpgpu_cflog_interval                    0 # Interval between each snapshot in control flow logger
-visualizer_enabled                     0 # Turn on visualizer output (1=On, 0=Off)
-visualizer_outputfile                 NULL # Specifies the output log file for visualizer
-visualizer_zlevel                      6 # Compression level of the visualizer output log (0=no comp, 9=highest)
-trace_enabled                          0 # Turn on traces
-trace_components                    none # comma seperated list of traces to enable. Complete list found in trace_streams.tup. Default none
-trace_sampling_core                    0 # The core which is printed using CORE_DPRINTF. Default 0
-trace_sampling_memory_partition                   -1 # The memory partition which is printed using MEMPART_DPRINTF. Default -1 (i.e. all)
-enable_ptx_file_line_stats                    1 # Turn on PTX source line statistic profiling. (1 = On)
-ptx_line_stats_filename gpgpu_inst_stats.txt # Output file for PTX source line statistics.
-save_embedded_ptx                      0 # saves ptx files embedded in binary as <n>.ptx
-keep                                   0 # keep intermediate files created by GPGPU-Sim when interfacing with external programs
-gpgpu_ptx_save_converted_ptxplus                    0 # Saved converted ptxplus to a file
-ptx_opcode_latency_int         4,13,4,5,145 # Opcode latencies for integers <ADD,MAX,MUL,MAD,DIV>Default 1,1,19,25,145
-ptx_opcode_latency_fp          4,13,4,5,39 # Opcode latencies for single precision floating points <ADD,MAX,MUL,MAD,DIV>Default 1,1,1,1,30
-ptx_opcode_latency_dp         8,19,8,8,330 # Opcode latencies for double precision floating points <ADD,MAX,MUL,MAD,DIV>Default 8,8,8,8,335
-ptx_opcode_initiation_int            1,2,2,1,8 # Opcode initiation intervals for integers <ADD,MAX,MUL,MAD,DIV>Default 1,1,4,4,32
-ptx_opcode_initiation_fp            1,2,1,1,4 # Opcode initiation intervals for single precision floating points <ADD,MAX,MUL,MAD,DIV>Default 1,1,1,1,5
-ptx_opcode_initiation_dp         8,16,8,8,130 # Opcode initiation intervals for double precision floating points <ADD,MAX,MUL,MAD,DIV>Default 8,8,8,8,130
DRAM Timing Options:
nbk                                    16 # number of banks
CCD                                     2 # column to column delay
RRD                                     6 # minimal delay between activation of rows in different banks
RCD                                    12 # row to column delay
RAS                                    28 # time needed to activate row
RP                                     12 # time needed to precharge (deactivate) row
RC                                     40 # row cycle time
CDLR                                    5 # switching from write to read (changes tWTR)
WR                                     12 # last data-in to row precharge
CL                                     12 # CAS latency
WL                                      4 # Write latency
nbkgrp                                  4 # number of bank groups
CCDL                                    3 # column to column delay between accesses to different bank groups
RTPL                                    2 # read to precharge delay between accesses to different bank groups
Total number of memory sub partition = 12
addr_dec_mask[CHIP]  = 0000000000000000 	high:64 low:0
addr_dec_mask[BK]    = 000000000000e100 	high:16 low:8
addr_dec_mask[ROW]   = 000000000fff0000 	high:28 low:16
addr_dec_mask[COL]   = 0000000000001eff 	high:13 low:0
addr_dec_mask[BURST] = 000000000000003f 	high:6 low:0
sub_partition_id_mask = 0000000000000100
GPGPU-Sim uArch: clock freqs: 700000000.000000:700000000.000000:700000000.000000:924000000.000000
GPGPU-Sim uArch: clock periods: 0.00000000142857142857:0.00000000142857142857:0.00000000142857142857:0.00000000108225108225
*** Initializing Memory Statistics ***
GPGPU-Sim uArch: interconnect node map (shaderID+MemID to icntID)
GPGPU-Sim uArch: Memory nodes ID start from index: 15
GPGPU-Sim uArch:    0   1   2   3   4
GPGPU-Sim uArch:    5   6   7   8   9
GPGPU-Sim uArch:   10  11  12  13  14
GPGPU-Sim uArch:   15  16  17  18  19
GPGPU-Sim uArch:   20  21  22  23  24
GPGPU-Sim uArch:   25  26
GPGPU-Sim uArch: interconnect node reverse map (icntID to shaderID+MemID)
GPGPU-Sim uArch: Memory nodes start from ID: 15
GPGPU-Sim uArch:    0   1   2   3   4
GPGPU-Sim uArch:    5   6   7   8   9
GPGPU-Sim uArch:   10  11  12  13  14
GPGPU-Sim uArch:   15  16  17  18  19
GPGPU-Sim uArch:   20  21  22  23  24
GPGPU-Sim uArch:   25  26
cc2a1bce5fcafc416d3f0cc2658df2cd  /home/min/a/gupta286/ece695_ftc/gpgpusim-workloads/matrixMulOptq/mmp
GPGPU-Sim uArch: performance model initialization complete.
GPGPU-Sim PTX: __cudaRegisterFatBinary, fat_cubin_handle = 1, filename=matrixMul_packed.cu
self exe links to: /home/min/a/gupta286/ece695_ftc/gpgpusim-workloads/matrixMulOptq/mmp
Running md5sum using "md5sum /home/min/a/gupta286/ece695_ftc/gpgpusim-workloads/matrixMulOptq/mmp "
Running cuobjdump using "$CUDA_INSTALL_PATH/bin/cuobjdump -ptx -elf -sass /home/min/a/gupta286/ece695_ftc/gpgpusim-workloads/matrixMulOptq/mmp > _cuobjdump_complete_output_3JDa9h"
Parsing file _cuobjdump_complete_output_3JDa9h
######### cuobjdump parser ########
## Adding new section ELF
Adding arch: sm_20
Adding identifier: matrixMul_packed.cu
## Adding new section PTX
Adding ptx filename: _cuobjdump_1.ptx
Adding arch: sm_20
Adding identifier: matrixMul_packed.cu
Done parsing!!!
GPGPU-Sim PTX: __cudaRegisterFunction _Z12matrixMulGPUPjS_Pii : hostFun 0x0x401225, fat_cubin_handle = 1
DEBUG File name parsing 2 = mmp.ptx
GPGPU-Sim PTX: overriding embedded ptx with 'mmp.ptx' (PTX_SIM_USE_PTX_FILE is set)
GPGPU-Sim PTX: allocating shared region for "__cuda_local_var_16200_47_non_const_As" from 0x0 to 0x100 (shared memory space)
GPGPU-Sim PTX: allocating shared region for "__cuda_local_var_16204_47_non_const_Bs" from 0x100 to 0x200 (shared memory space)
GPGPU-Sim PTX: instruction assembly for function '_Z12matrixMulGPUPjS_Pii'...   done.
GPGPU-Sim PTX: finding reconvergence points for '_Z12matrixMulGPUPjS_Pii'...
GPGPU-Sim PTX: Finding dominators for '_Z12matrixMulGPUPjS_Pii'...
GPGPU-Sim PTX: Finding immediate dominators for '_Z12matrixMulGPUPjS_Pii'...
GPGPU-Sim PTX: Finding postdominators for '_Z12matrixMulGPUPjS_Pii'...
GPGPU-Sim PTX: Finding immediate postdominators for '_Z12matrixMulGPUPjS_Pii'...
GPGPU-Sim PTX: pre-decoding instructions for '_Z12matrixMulGPUPjS_Pii'...
GPGPU-Sim PTX: reconvergence points for _Z12matrixMulGPUPjS_Pii...
GPGPU-Sim PTX:  1 (potential) branch divergence @  PC=0x070 (_1.ptx:52) @%p2 bra BB0_5;
GPGPU-Sim PTX:    immediate post dominator      @  PC=0x218 (_1.ptx:130) mov.u32 %r69, %ctaid.y;
GPGPU-Sim PTX:  2 (potential) branch divergence @  PC=0x0f0 (_1.ptx:76) @!%p1 bra BB0_4;
GPGPU-Sim PTX:    immediate post dominator      @  PC=0x178 (_1.ptx:101) bar.sync 0;
GPGPU-Sim PTX:  3 (potential) branch divergence @  PC=0x200 (_1.ptx:122) @%p3 bra BB0_2;
GPGPU-Sim PTX:    immediate post dominator      @  PC=0x208 (_1.ptx:123) bra.uni BB0_6;
GPGPU-Sim PTX:  4 (potential) branch divergence @  PC=0x208 (_1.ptx:123) bra.uni BB0_6;
GPGPU-Sim PTX:    immediate post dominator      @  PC=0x218 (_1.ptx:130) mov.u32 %r69, %ctaid.y;
GPGPU-Sim PTX: ... end of reconvergence points for _Z12matrixMulGPUPjS_Pii
GPGPU-Sim PTX: ... done pre-decoding instructions for '_Z12matrixMulGPUPjS_Pii'.
GPGPU-Sim PTX: finished parsing EMBEDDED .ptx file _1.ptx
Adding _cuobjdump_1.ptx with cubin handle 1
GPGPU-Sim PTX: extracting embedded .ptx to temporary file "_ptx_8lb9Ai"
Running: cat _ptx_8lb9Ai | sed 's/.version 1.5/.version 1.4/' | sed '/addk_k/d' | sed 's/_quadi//' | sed 's/, texmode_independent//' | sed 's/\(\.extern \.const\[1\] .b8 \w\+\)\[\]/\1\[1\]/' | sed 's/const\[.\]/const\[0\]/g' > _ptx2_JIwF6i
GPGPU-Sim PTX: generating ptxinfo using "$CUDA_INSTALL_PATH/bin/ptxas --gpu-name=sm_20 -v _ptx2_JIwF6i --output-file  /dev/null 2> _ptx_8lb9Aiinfo"
GPGPU-Sim PTX: Kernel '_Z12matrixMulGPUPjS_Pii' : regs=19, lmem=0, smem=512, cmem=60
GPGPU-Sim PTX: removing ptxinfo using "rm -f _ptx_8lb9Ai _ptx2_JIwF6i _ptx_8lb9Aiinfo"
GPGPU-Sim PTX: loading globals with explicit initializers... 
GPGPU-Sim PTX: finished loading globals (0 bytes total).
GPGPU-Sim PTX: loading constants with explicit initializers...  done.

GPGPU-Sim PTX: cudaLaunch for 0x0x401225 (mode=performance simulation) on stream 0
GPGPU-Sim PTX: pushing kernel '_Z12matrixMulGPUPjS_Pii' to stream 0, gridDim= (64,64,1) blockDim = (16,16,1) 
kernel '_Z12matrixMulGPUPjS_Pii' transfer to GPU hardware scheduler
GPGPU-Sim uArch: Shader 1 bind to kernel 1 '_Z12matrixMulGPUPjS_Pii'
GPGPU-Sim uArch: CTA/core = 6, limited by: threads regs
GPGPU-Sim uArch: core:  1, cta: 0 initialized @(1,0)
GPGPU-Sim uArch: Shader 2 bind to kernel 1 '_Z12matrixMulGPUPjS_Pii'
GPGPU-Sim uArch: core:  2, cta: 0 initialized @(1,0)
GPGPU-Sim uArch: Shader 3 bind to kernel 1 '_Z12matrixMulGPUPjS_Pii'
GPGPU-Sim uArch: core:  3, cta: 0 initialized @(1,0)
GPGPU-Sim uArch: Shader 4 bind to kernel 1 '_Z12matrixMulGPUPjS_Pii'
GPGPU-Sim uArch: core:  4, cta: 0 initialized @(1,0)
GPGPU-Sim uArch: Shader 5 bind to kernel 1 '_Z12matrixMulGPUPjS_Pii'
GPGPU-Sim uArch: core:  5, cta: 0 initialized @(1,0)
GPGPU-Sim uArch: Shader 6 bind to kernel 1 '_Z12matrixMulGPUPjS_Pii'
GPGPU-Sim uArch: core:  6, cta: 0 initialized @(1,0)
GPGPU-Sim uArch: Shader 7 bind to kernel 1 '_Z12matrixMulGPUPjS_Pii'
GPGPU-Sim uArch: core:  7, cta: 0 initialized @(1,0)
GPGPU-Sim uArch: Shader 8 bind to kernel 1 '_Z12matrixMulGPUPjS_Pii'
GPGPU-Sim uArch: core:  8, cta: 0 initialized @(1,0)
GPGPU-Sim uArch: Shader 9 bind to kernel 1 '_Z12matrixMulGPUPjS_Pii'
GPGPU-Sim uArch: core:  9, cta: 0 initialized @(1,0)
GPGPU-Sim uArch: Shader 10 bind to kernel 1 '_Z12matrixMulGPUPjS_Pii'
GPGPU-Sim uArch: core: 10, cta: 0 initialized @(1,0)
GPGPU-Sim uArch: Shader 11 bind to kernel 1 '_Z12matrixMulGPUPjS_Pii'
GPGPU-Sim uArch: core: 11, cta: 0 initialized @(1,0)
GPGPU-Sim uArch: Shader 12 bind to kernel 1 '_Z12matrixMulGPUPjS_Pii'
GPGPU-Sim uArch: core: 12, cta: 0 initialized @(1,0)
GPGPU-Sim uArch: Shader 13 bind to kernel 1 '_Z12matrixMulGPUPjS_Pii'
GPGPU-Sim uArch: core: 13, cta: 0 initialized @(1,0)
GPGPU-Sim uArch: Shader 14 bind to kernel 1 '_Z12matrixMulGPUPjS_Pii'
GPGPU-Sim uArch: core: 14, cta: 0 initialized @(1,0)
GPGPU-Sim uArch: Shader 0 bind to kernel 1 '_Z12matrixMulGPUPjS_Pii'
GPGPU-Sim uArch: core:  0, cta: 0 initialized @(1,0)
GPGPU-Sim uArch: core:  1, cta: 1 initialized @(2,0)
GPGPU-Sim uArch: core:  2, cta: 1 initialized @(2,0)
GPGPU-Sim uArch: core:  3, cta: 1 initialized @(2,0)
GPGPU-Sim uArch: core:  4, cta: 1 initialized @(2,0)
GPGPU-Sim uArch: core:  5, cta: 1 initialized @(2,0)
GPGPU-Sim uArch: core:  6, cta: 1 initialized @(2,0)
GPGPU-Sim uArch: core:  7, cta: 1 initialized @(2,0)
GPGPU-Sim uArch: core:  8, cta: 1 initialized @(2,0)
GPGPU-Sim uArch: core:  9, cta: 1 initialized @(2,0)
GPGPU-Sim uArch: core: 10, cta: 1 initialized @(2,0)
GPGPU-Sim uArch: core: 11, cta: 1 initialized @(2,0)
GPGPU-Sim uArch: core: 12, cta: 1 initialized @(2,0)
GPGPU-Sim uArch: core: 13, cta: 1 initialized @(2,0)
GPGPU-Sim uArch: core: 14, cta: 1 initialized @(2,0)
GPGPU-Sim uArch: core:  0, cta: 1 initialized @(2,0)
GPGPU-Sim uArch: core:  1, cta: 2 initialized @(3,0)
GPGPU-Sim uArch: core:  2, cta: 2 initialized @(3,0)
GPGPU-Sim uArch: core:  3, cta: 2 initialized @(3,0)
GPGPU-Sim uArch: core:  4, cta: 2 initialized @(3,0)
GPGPU-Sim uArch: core:  5, cta: 2 initialized @(3,0)
GPGPU-Sim uArch: core:  6, cta: 2 initialized @(3,0)
GPGPU-Sim uArch: core:  7, cta: 2 initialized @(3,0)
GPGPU-Sim uArch: core:  8, cta: 2 initialized @(3,0)
GPGPU-Sim uArch: core:  9, cta: 2 initialized @(3,0)
GPGPU-Sim uArch: core: 10, cta: 2 initialized @(3,0)
GPGPU-Sim uArch: core: 11, cta: 2 initialized @(3,0)
GPGPU-Sim uArch: core: 12, cta: 2 initialized @(3,0)
GPGPU-Sim uArch: core: 13, cta: 2 initialized @(3,0)
GPGPU-Sim uArch: core: 14, cta: 2 initialized @(3,0)
GPGPU-Sim uArch: core:  0, cta: 2 initialized @(3,0)
GPGPU-Sim uArch: core:  1, cta: 3 initialized @(4,0)
GPGPU-Sim uArch: core:  2, cta: 3 initialized @(4,0)
GPGPU-Sim uArch: core:  3, cta: 3 initialized @(4,0)
GPGPU-Sim uArch: core:  4, cta: 3 initialized @(4,0)
GPGPU-Sim uArch: core:  5, cta: 3 initialized @(4,0)
GPGPU-Sim uArch: core:  6, cta: 3 initialized @(4,0)
GPGPU-Sim uArch: core:  7, cta: 3 initialized @(4,0)
GPGPU-Sim uArch: core:  8, cta: 3 initialized @(4,0)
GPGPU-Sim uArch: core:  9, cta: 3 initialized @(4,0)
GPGPU-Sim uArch: core: 10, cta: 3 initialized @(4,0)
GPGPU-Sim uArch: core: 11, cta: 3 initialized @(4,0)
GPGPU-Sim uArch: core: 12, cta: 3 initialized @(4,0)
GPGPU-Sim uArch: core: 13, cta: 3 initialized @(4,0)
GPGPU-Sim uArch: core: 14, cta: 3 initialized @(4,0)
GPGPU-Sim uArch: core:  0, cta: 3 initialized @(4,0)
GPGPU-Sim uArch: core:  1, cta: 4 initialized @(5,0)
GPGPU-Sim uArch: core:  2, cta: 4 initialized @(5,0)
GPGPU-Sim uArch: core:  3, cta: 4 initialized @(5,0)
GPGPU-Sim uArch: core:  4, cta: 4 initialized @(5,0)
GPGPU-Sim uArch: core:  5, cta: 4 initialized @(5,0)
GPGPU-Sim uArch: core:  6, cta: 4 initialized @(5,0)
GPGPU-Sim uArch: core:  7, cta: 4 initialized @(5,0)
GPGPU-Sim uArch: core:  8, cta: 4 initialized @(5,0)
GPGPU-Sim uArch: core:  9, cta: 4 initialized @(5,0)
GPGPU-Sim uArch: core: 10, cta: 4 initialized @(5,0)
GPGPU-Sim uArch: core: 11, cta: 4 initialized @(5,0)
GPGPU-Sim uArch: core: 12, cta: 4 initialized @(5,0)
GPGPU-Sim uArch: core: 13, cta: 4 initialized @(5,0)
GPGPU-Sim uArch: core: 14, cta: 4 initialized @(5,0)
GPGPU-Sim uArch: core:  0, cta: 4 initialized @(5,0)
GPGPU-Sim uArch: core:  1, cta: 5 initialized @(6,0)
GPGPU-Sim uArch: core:  2, cta: 5 initialized @(6,0)
GPGPU-Sim uArch: core:  3, cta: 5 initialized @(6,0)
GPGPU-Sim uArch: core:  4, cta: 5 initialized @(6,0)
GPGPU-Sim uArch: core:  5, cta: 5 initialized @(6,0)
GPGPU-Sim uArch: core:  6, cta: 5 initialized @(6,0)
GPGPU-Sim uArch: core:  7, cta: 5 initialized @(6,0)
GPGPU-Sim uArch: core:  8, cta: 5 initialized @(6,0)
GPGPU-Sim uArch: core:  9, cta: 5 initialized @(6,0)
GPGPU-Sim uArch: core: 10, cta: 5 initialized @(6,0)
GPGPU-Sim uArch: core: 11, cta: 5 initialized @(6,0)
GPGPU-Sim uArch: core: 12, cta: 5 initialized @(6,0)
GPGPU-Sim uArch: core: 13, cta: 5 initialized @(6,0)
GPGPU-Sim uArch: core: 14, cta: 5 initialized @(6,0)
GPGPU-Sim uArch: core:  0, cta: 5 initialized @(6,0)
GPGPU-Sim uArch: cycles simulated: 500  inst.: 17760 (ipc=35.5) sim_rate=17760 (inst/sec) elapsed = 0:0:00:01 / Fri Dec 16 07:44:29 2016
GPGPU-Sim PTX: 100000 instructions simulated : ctaid=(12,0,0) tid=(15,7,0)
GPGPU-Sim PTX: 200000 instructions simulated : ctaid=(47,0,0) tid=(15,3,0)
GPGPU-Sim PTX: 300000 instructions simulated : ctaid=(58,0,0) tid=(15,13,0)
GPGPU-Sim uArch: cycles simulated: 1000  inst.: 356288 (ipc=356.3) sim_rate=178144 (inst/sec) elapsed = 0:0:00:02 / Fri Dec 16 07:44:30 2016
GPGPU-Sim PTX: 400000 instructions simulated : ctaid=(24,0,0) tid=(15,15,0)
GPGPU-Sim PTX: 500000 instructions simulated : ctaid=(0,0,0) tid=(15,11,0)
GPGPU-Sim PTX: 600000 instructions simulated : ctaid=(37,0,0) tid=(15,11,0)
GPGPU-Sim PTX: 700000 instructions simulated : ctaid=(56,0,0) tid=(15,15,0)
GPGPU-Sim uArch: cycles simulated: 3000  inst.: 748040 (ipc=249.3) sim_rate=249346 (inst/sec) elapsed = 0:0:00:03 / Fri Dec 16 07:44:31 2016
GPGPU-Sim PTX: 800000 instructions simulated : ctaid=(39,0,0) tid=(3,3,0)
GPGPU-Sim PTX: 900000 instructions simulated : ctaid=(23,1,0) tid=(3,3,0)
GPGPU-Sim uArch: cycles simulated: 5000  inst.: 879184 (ipc=175.8) sim_rate=219796 (inst/sec) elapsed = 0:0:00:04 / Fri Dec 16 07:44:32 2016
GPGPU-Sim PTX: 1000000 instructions simulated : ctaid=(23,0,0) tid=(7,0,0)
GPGPU-Sim PTX: 1100000 instructions simulated : ctaid=(59,0,0) tid=(7,8,0)
GPGPU-Sim PTX: 1200000 instructions simulated : ctaid=(11,1,0) tid=(15,14,0)
GPGPU-Sim PTX: 1300000 instructions simulated : ctaid=(29,0,0) tid=(15,2,0)
GPGPU-Sim PTX: 1400000 instructions simulated : ctaid=(22,0,0) tid=(7,10,0)
GPGPU-Sim PTX: 1500000 instructions simulated : ctaid=(0,0,0) tid=(15,13,0)
GPGPU-Sim uArch: cycles simulated: 7000  inst.: 1485976 (ipc=212.3) sim_rate=297195 (inst/sec) elapsed = 0:0:00:05 / Fri Dec 16 07:44:33 2016
GPGPU-Sim PTX: 1600000 instructions simulated : ctaid=(5,0,0) tid=(15,4,0)
GPGPU-Sim PTX: 1700000 instructions simulated : ctaid=(4,0,0) tid=(7,8,0)
GPGPU-Sim PTX: 1800000 instructions simulated : ctaid=(22,0,0) tid=(15,4,0)
GPGPU-Sim PTX: 1900000 instructions simulated : ctaid=(24,0,0) tid=(7,12,0)
GPGPU-Sim PTX: 2000000 instructions simulated : ctaid=(21,0,0) tid=(15,14,0)
GPGPU-Sim PTX: 2100000 instructions simulated : ctaid=(22,0,0) tid=(7,6,0)
GPGPU-Sim uArch: cycles simulated: 8500  inst.: 2145224 (ipc=252.4) sim_rate=357537 (inst/sec) elapsed = 0:0:00:06 / Fri Dec 16 07:44:34 2016
GPGPU-Sim PTX: 2200000 instructions simulated : ctaid=(15,0,0) tid=(7,13,0)
GPGPU-Sim PTX: 2300000 instructions simulated : ctaid=(5,0,0) tid=(15,4,0)
GPGPU-Sim PTX: 2400000 instructions simulated : ctaid=(1,0,0) tid=(15,9,0)
GPGPU-Sim PTX: 2500000 instructions simulated : ctaid=(26,0,0) tid=(15,15,0)
GPGPU-Sim PTX: 2600000 instructions simulated : ctaid=(41,0,0) tid=(7,10,0)
GPGPU-Sim PTX: 2700000 instructions simulated : ctaid=(43,0,0) tid=(7,5,0)
GPGPU-Sim PTX: 2800000 instructions simulated : ctaid=(10,0,0) tid=(7,9,0)
GPGPU-Sim uArch: cycles simulated: 10000  inst.: 2773272 (ipc=277.3) sim_rate=396181 (inst/sec) elapsed = 0:0:00:07 / Fri Dec 16 07:44:35 2016
GPGPU-Sim PTX: 2900000 instructions simulated : ctaid=(3,0,0) tid=(7,1,0)
GPGPU-Sim PTX: 3000000 instructions simulated : ctaid=(3,0,0) tid=(15,11,0)
GPGPU-Sim PTX: 3100000 instructions simulated : ctaid=(12,1,0) tid=(15,5,0)
GPGPU-Sim PTX: 3200000 instructions simulated : ctaid=(33,0,0) tid=(15,2,0)
GPGPU-Sim uArch: cycles simulated: 11500  inst.: 3147744 (ipc=273.7) sim_rate=393468 (inst/sec) elapsed = 0:0:00:08 / Fri Dec 16 07:44:36 2016
GPGPU-Sim PTX: 3300000 instructions simulated : ctaid=(22,0,0) tid=(15,6,0)
GPGPU-Sim PTX: 3400000 instructions simulated : ctaid=(38,0,0) tid=(15,0,0)
GPGPU-Sim PTX: 3500000 instructions simulated : ctaid=(37,0,0) tid=(15,15,0)
GPGPU-Sim PTX: 3600000 instructions simulated : ctaid=(56,0,0) tid=(7,2,0)
GPGPU-Sim uArch: cycles simulated: 13500  inst.: 3624576 (ipc=268.5) sim_rate=402730 (inst/sec) elapsed = 0:0:00:09 / Fri Dec 16 07:44:37 2016
GPGPU-Sim PTX: 3700000 instructions simulated : ctaid=(51,0,0) tid=(15,7,0)
GPGPU-Sim PTX: 3800000 instructions simulated : ctaid=(47,0,0) tid=(3,7,0)
GPGPU-Sim PTX: 3900000 instructions simulated : ctaid=(16,0,0) tid=(7,7,0)
GPGPU-Sim PTX: 4000000 instructions simulated : ctaid=(52,0,0) tid=(7,5,0)
GPGPU-Sim PTX: 4100000 instructions simulated : ctaid=(53,0,0) tid=(15,9,0)
GPGPU-Sim uArch: cycles simulated: 15500  inst.: 4070008 (ipc=262.6) sim_rate=407000 (inst/sec) elapsed = 0:0:00:10 / Fri Dec 16 07:44:38 2016
GPGPU-Sim PTX: 4200000 instructions simulated : ctaid=(44,0,0) tid=(7,3,0)
GPGPU-Sim PTX: 4300000 instructions simulated : ctaid=(5,0,0) tid=(15,10,0)
GPGPU-Sim PTX: 4400000 instructions simulated : ctaid=(7,1,0) tid=(15,14,0)
GPGPU-Sim uArch: cycles simulated: 17000  inst.: 4387768 (ipc=258.1) sim_rate=398888 (inst/sec) elapsed = 0:0:00:11 / Fri Dec 16 07:44:39 2016
GPGPU-Sim PTX: 4500000 instructions simulated : ctaid=(41,0,0) tid=(15,0,0)
GPGPU-Sim PTX: 4600000 instructions simulated : ctaid=(53,0,0) tid=(7,1,0)
GPGPU-Sim PTX: 4700000 instructions simulated : ctaid=(13,1,0) tid=(15,7,0)
GPGPU-Sim PTX: 4800000 instructions simulated : ctaid=(7,0,0) tid=(3,13,0)
GPGPU-Sim PTX: 4900000 instructions simulated : ctaid=(22,0,0) tid=(15,3,0)
GPGPU-Sim uArch: cycles simulated: 19000  inst.: 4834904 (ipc=254.5) sim_rate=402908 (inst/sec) elapsed = 0:0:00:12 / Fri Dec 16 07:44:40 2016
GPGPU-Sim PTX: 5000000 instructions simulated : ctaid=(53,0,0) tid=(7,2,0)
GPGPU-Sim PTX: 5100000 instructions simulated : ctaid=(2,0,0) tid=(15,15,0)
GPGPU-Sim PTX: 5200000 instructions simulated : ctaid=(9,0,0) tid=(15,14,0)
GPGPU-Sim uArch: cycles simulated: 20500  inst.: 5196544 (ipc=253.5) sim_rate=399734 (inst/sec) elapsed = 0:0:00:13 / Fri Dec 16 07:44:41 2016
GPGPU-Sim PTX: 5300000 instructions simulated : ctaid=(10,1,0) tid=(15,11,0)
GPGPU-Sim PTX: 5400000 instructions simulated : ctaid=(3,0,0) tid=(7,7,0)
GPGPU-Sim PTX: 5500000 instructions simulated : ctaid=(58,0,0) tid=(15,0,0)
GPGPU-Sim PTX: 5600000 instructions simulated : ctaid=(15,0,0) tid=(7,3,0)
GPGPU-Sim PTX: 5700000 instructions simulated : ctaid=(10,0,0) tid=(7,1,0)
GPGPU-Sim PTX: 5800000 instructions simulated : ctaid=(11,0,0) tid=(3,1,0)
GPGPU-Sim uArch: cycles simulated: 22500  inst.: 5736640 (ipc=255.0) sim_rate=409760 (inst/sec) elapsed = 0:0:00:14 / Fri Dec 16 07:44:42 2016
GPGPU-Sim PTX: 5900000 instructions simulated : ctaid=(19,0,0) tid=(3,15,0)
GPGPU-Sim PTX: 6000000 instructions simulated : ctaid=(2,0,0) tid=(7,7,0)
GPGPU-Sim PTX: 6100000 instructions simulated : ctaid=(7,0,0) tid=(15,2,0)
GPGPU-Sim PTX: 6200000 instructions simulated : ctaid=(28,0,0) tid=(7,7,0)
GPGPU-Sim PTX: 6300000 instructions simulated : ctaid=(39,0,0) tid=(3,7,0)
GPGPU-Sim uArch: cycles simulated: 24000  inst.: 6227400 (ipc=259.5) sim_rate=415160 (inst/sec) elapsed = 0:0:00:15 / Fri Dec 16 07:44:43 2016
GPGPU-Sim PTX: 6400000 instructions simulated : ctaid=(43,0,0) tid=(7,15,0)
GPGPU-Sim PTX: 6500000 instructions simulated : ctaid=(14,0,0) tid=(3,13,0)
GPGPU-Sim PTX: 6600000 instructions simulated : ctaid=(15,0,0) tid=(15,9,0)
GPGPU-Sim PTX: 6700000 instructions simulated : ctaid=(21,0,0) tid=(15,10,0)
GPGPU-Sim PTX: 6800000 instructions simulated : ctaid=(57,0,0) tid=(15,2,0)
GPGPU-Sim uArch: cycles simulated: 25500  inst.: 6731400 (ipc=264.0) sim_rate=420712 (inst/sec) elapsed = 0:0:00:16 / Fri Dec 16 07:44:44 2016
GPGPU-Sim PTX: 6900000 instructions simulated : ctaid=(40,0,0) tid=(15,4,0)
GPGPU-Sim PTX: 7000000 instructions simulated : ctaid=(38,0,0) tid=(15,1,0)
GPGPU-Sim PTX: 7100000 instructions simulated : ctaid=(3,0,0) tid=(15,4,0)
GPGPU-Sim PTX: 7200000 instructions simulated : ctaid=(50,0,0) tid=(7,10,0)
GPGPU-Sim PTX: 7300000 instructions simulated : ctaid=(7,0,0) tid=(7,10,0)
GPGPU-Sim PTX: 7400000 instructions simulated : ctaid=(33,0,0) tid=(7,8,0)
GPGPU-Sim uArch: cycles simulated: 27500  inst.: 7345608 (ipc=267.1) sim_rate=432094 (inst/sec) elapsed = 0:0:00:17 / Fri Dec 16 07:44:45 2016
GPGPU-Sim PTX: 7500000 instructions simulated : ctaid=(2,0,0) tid=(3,3,0)
GPGPU-Sim PTX: 7600000 instructions simulated : ctaid=(5,0,0) tid=(3,3,0)
GPGPU-Sim PTX: 7700000 instructions simulated : ctaid=(38,0,0) tid=(7,12,0)
GPGPU-Sim PTX: 7800000 instructions simulated : ctaid=(11,0,0) tid=(15,2,0)
GPGPU-Sim PTX: 7900000 instructions simulated : ctaid=(60,0,0) tid=(7,4,0)
GPGPU-Sim uArch: cycles simulated: 29000  inst.: 7885752 (ipc=271.9) sim_rate=438097 (inst/sec) elapsed = 0:0:00:18 / Fri Dec 16 07:44:46 2016
GPGPU-Sim PTX: 8000000 instructions simulated : ctaid=(23,1,0) tid=(15,9,0)
GPGPU-Sim PTX: 8100000 instructions simulated : ctaid=(0,0,0) tid=(15,14,0)
GPGPU-Sim PTX: 8200000 instructions simulated : ctaid=(61,0,0) tid=(7,1,0)
GPGPU-Sim PTX: 8300000 instructions simulated : ctaid=(15,0,0) tid=(15,2,0)
GPGPU-Sim PTX: 8400000 instructions simulated : ctaid=(56,0,0) tid=(7,4,0)
GPGPU-Sim PTX: 8500000 instructions simulated : ctaid=(18,0,0) tid=(3,1,0)
GPGPU-Sim PTX: 8600000 instructions simulated : ctaid=(61,0,0) tid=(7,2,0)
GPGPU-Sim uArch: cycles simulated: 30500  inst.: 8517760 (ipc=279.3) sim_rate=448303 (inst/sec) elapsed = 0:0:00:19 / Fri Dec 16 07:44:47 2016
GPGPU-Sim PTX: 8700000 instructions simulated : ctaid=(0,0,0) tid=(15,1,0)
GPGPU-Sim PTX: 8800000 instructions simulated : ctaid=(51,0,0) tid=(7,15,0)
GPGPU-Sim PTX: 8900000 instructions simulated : ctaid=(22,0,0) tid=(15,10,0)
GPGPU-Sim PTX: 9000000 instructions simulated : ctaid=(3,0,0) tid=(3,15,0)
GPGPU-Sim PTX: 9100000 instructions simulated : ctaid=(2,0,0) tid=(15,4,0)
GPGPU-Sim uArch: cycles simulated: 32000  inst.: 9014952 (ipc=281.7) sim_rate=450747 (inst/sec) elapsed = 0:0:00:20 / Fri Dec 16 07:44:48 2016
GPGPU-Sim PTX: 9200000 instructions simulated : ctaid=(29,0,0) tid=(7,8,0)
GPGPU-Sim PTX: 9300000 instructions simulated : ctaid=(15,0,0) tid=(15,13,0)
GPGPU-Sim PTX: 9400000 instructions simulated : ctaid=(43,0,0) tid=(3,15,0)
GPGPU-Sim PTX: 9500000 instructions simulated : ctaid=(6,0,0) tid=(7,1,0)
GPGPU-Sim uArch: cycles simulated: 33500  inst.: 9463248 (ipc=282.5) sim_rate=450630 (inst/sec) elapsed = 0:0:00:21 / Fri Dec 16 07:44:49 2016
GPGPU-Sim PTX: 9600000 instructions simulated : ctaid=(10,0,0) tid=(3,3,0)
GPGPU-Sim PTX: 9700000 instructions simulated : ctaid=(20,1,0) tid=(15,8,0)
GPGPU-Sim PTX: 9800000 instructions simulated : ctaid=(3,0,0) tid=(15,3,0)
GPGPU-Sim PTX: 9900000 instructions simulated : ctaid=(14,0,0) tid=(7,10,0)
GPGPU-Sim PTX: 10000000 instructions simulated : ctaid=(6,0,0) tid=(3,9,0)
GPGPU-Sim uArch: cycles simulated: 35000  inst.: 9907224 (ipc=283.1) sim_rate=450328 (inst/sec) elapsed = 0:0:00:22 / Fri Dec 16 07:44:50 2016
GPGPU-Sim PTX: 10100000 instructions simulated : ctaid=(55,0,0) tid=(7,8,0)
GPGPU-Sim PTX: 10200000 instructions simulated : ctaid=(29,0,0) tid=(7,1,0)
GPGPU-Sim PTX: 10300000 instructions simulated : ctaid=(56,0,0) tid=(7,9,0)
GPGPU-Sim PTX: 10400000 instructions simulated : ctaid=(6,1,0) tid=(3,1,0)
GPGPU-Sim PTX: 10500000 instructions simulated : ctaid=(4,0,0) tid=(7,4,0)
GPGPU-Sim uArch: cycles simulated: 37000  inst.: 10423232 (ipc=281.7) sim_rate=453184 (inst/sec) elapsed = 0:0:00:23 / Fri Dec 16 07:44:51 2016
GPGPU-Sim PTX: 10600000 instructions simulated : ctaid=(38,0,0) tid=(7,6,0)
GPGPU-Sim PTX: 10700000 instructions simulated : ctaid=(10,0,0) tid=(7,3,0)
GPGPU-Sim PTX: 10800000 instructions simulated : ctaid=(28,0,0) tid=(15,2,0)
GPGPU-Sim PTX: 10900000 instructions simulated : ctaid=(10,0,0) tid=(7,15,0)
GPGPU-Sim PTX: 11000000 instructions simulated : ctaid=(35,0,0) tid=(15,8,0)
GPGPU-Sim PTX: 11100000 instructions simulated : ctaid=(21,0,0) tid=(15,3,0)
GPGPU-Sim uArch: cycles simulated: 39000  inst.: 10988408 (ipc=281.8) sim_rate=457850 (inst/sec) elapsed = 0:0:00:24 / Fri Dec 16 07:44:52 2016
GPGPU-Sim PTX: 11200000 instructions simulated : ctaid=(30,0,0) tid=(7,5,0)
GPGPU-Sim PTX: 11300000 instructions simulated : ctaid=(50,0,0) tid=(7,2,0)
GPGPU-Sim PTX: 11400000 instructions simulated : ctaid=(32,0,0) tid=(7,3,0)
GPGPU-Sim PTX: 11500000 instructions simulated : ctaid=(1,0,0) tid=(7,6,0)
GPGPU-Sim uArch: cycles simulated: 40500  inst.: 11412896 (ipc=281.8) sim_rate=456515 (inst/sec) elapsed = 0:0:00:25 / Fri Dec 16 07:44:53 2016
GPGPU-Sim PTX: 11600000 instructions simulated : ctaid=(28,0,0) tid=(3,13,0)
GPGPU-Sim PTX: 11700000 instructions simulated : ctaid=(44,0,0) tid=(7,12,0)
GPGPU-Sim PTX: 11800000 instructions simulated : ctaid=(9,1,0) tid=(15,11,0)
GPGPU-Sim PTX: 11900000 instructions simulated : ctaid=(6,0,0) tid=(7,1,0)
GPGPU-Sim PTX: 12000000 instructions simulated : ctaid=(46,0,0) tid=(7,13,0)
GPGPU-Sim uArch: cycles simulated: 42500  inst.: 11941704 (ipc=281.0) sim_rate=459296 (inst/sec) elapsed = 0:0:00:26 / Fri Dec 16 07:44:54 2016
GPGPU-Sim PTX: 12100000 instructions simulated : ctaid=(20,0,0) tid=(15,6,0)
GPGPU-Sim PTX: 12200000 instructions simulated : ctaid=(35,0,0) tid=(3,7,0)
GPGPU-Sim PTX: 12300000 instructions simulated : ctaid=(9,0,0) tid=(7,12,0)
GPGPU-Sim PTX: 12400000 instructions simulated : ctaid=(5,0,0) tid=(15,6,0)
GPGPU-Sim uArch: cycles simulated: 44000  inst.: 12319736 (ipc=280.0) sim_rate=456286 (inst/sec) elapsed = 0:0:00:27 / Fri Dec 16 07:44:55 2016
GPGPU-Sim PTX: 12500000 instructions simulated : ctaid=(38,0,0) tid=(3,13,0)
GPGPU-Sim PTX: 12600000 instructions simulated : ctaid=(41,0,0) tid=(15,10,0)
GPGPU-Sim PTX: 12700000 instructions simulated : ctaid=(3,1,0) tid=(3,7,0)
GPGPU-Sim PTX: 12800000 instructions simulated : ctaid=(52,0,0) tid=(15,13,0)
GPGPU-Sim PTX: 12900000 instructions simulated : ctaid=(9,1,0) tid=(15,11,0)
GPGPU-Sim PTX: 13000000 instructions simulated : ctaid=(14,1,0) tid=(7,11,0)
GPGPU-Sim uArch: cycles simulated: 46000  inst.: 12902872 (ipc=280.5) sim_rate=460816 (inst/sec) elapsed = 0:0:00:28 / Fri Dec 16 07:44:56 2016
GPGPU-Sim PTX: 13100000 instructions simulated : ctaid=(2,1,0) tid=(15,14,0)
GPGPU-Sim PTX: 13200000 instructions simulated : ctaid=(29,0,0) tid=(7,11,0)
GPGPU-Sim PTX: 13300000 instructions simulated : ctaid=(30,0,0) tid=(15,9,0)
GPGPU-Sim PTX: 13400000 instructions simulated : ctaid=(53,0,0) tid=(7,7,0)
GPGPU-Sim uArch: Shader 8 finished CTA #0 (47074,0), 5 CTAs running
GPGPU-Sim uArch: core:  8, cta: 0 initialized @(47075,0)
GPGPU-Sim PTX: 13500000 instructions simulated : ctaid=(22,0,0) tid=(7,6,0)
GPGPU-Sim uArch: cycles simulated: 47500  inst.: 13413696 (ipc=282.4) sim_rate=462541 (inst/sec) elapsed = 0:0:00:29 / Fri Dec 16 07:44:57 2016
GPGPU-Sim PTX: 13600000 instructions simulated : ctaid=(28,0,0) tid=(15,9,0)
GPGPU-Sim uArch: Shader 4 finished CTA #0 (47665,0), 5 CTAs running
GPGPU-Sim uArch: core:  4, cta: 0 initialized @(47666,0)
GPGPU-Sim PTX: 13700000 instructions simulated : ctaid=(44,0,0) tid=(7,3,0)
GPGPU-Sim PTX: 13800000 instructions simulated : ctaid=(19,0,0) tid=(15,7,0)
GPGPU-Sim PTX: 13900000 instructions simulated : ctaid=(12,0,0) tid=(15,2,0)
GPGPU-Sim PTX: 14000000 instructions simulated : ctaid=(42,0,0) tid=(7,9,0)
GPGPU-Sim PTX: 14100000 instructions simulated : ctaid=(29,0,0) tid=(7,11,0)
GPGPU-Sim uArch: cycles simulated: 49000  inst.: 13968080 (ipc=285.1) sim_rate=465602 (inst/sec) elapsed = 0:0:00:30 / Fri Dec 16 07:44:58 2016
GPGPU-Sim PTX: 14200000 instructions simulated : ctaid=(18,0,0) tid=(15,13,0)
GPGPU-Sim PTX: 14300000 instructions simulated : ctaid=(3,1,0) tid=(3,11,0)
GPGPU-Sim uArch: Shader 7 finished CTA #0 (49442,0), 5 CTAs running
GPGPU-Sim uArch: core:  7, cta: 0 initialized @(49443,0)
GPGPU-Sim PTX: 14400000 instructions simulated : ctaid=(5,0,0) tid=(7,6,0)
GPGPU-Sim PTX: 14500000 instructions simulated : ctaid=(9,0,0) tid=(7,6,0)
GPGPU-Sim PTX: 14600000 instructions simulated : ctaid=(11,0,0) tid=(15,12,0)
GPGPU-Sim PTX: 14700000 instructions simulated : ctaid=(23,0,0) tid=(7,7,0)
GPGPU-Sim uArch: cycles simulated: 50500  inst.: 14549464 (ipc=288.1) sim_rate=469337 (inst/sec) elapsed = 0:0:00:31 / Fri Dec 16 07:44:59 2016
GPGPU-Sim PTX: 14800000 instructions simulated : ctaid=(10,0,0) tid=(15,6,0)
GPGPU-Sim PTX: 14900000 instructions simulated : ctaid=(13,0,0) tid=(7,3,0)
GPGPU-Sim PTX: 15000000 instructions simulated : ctaid=(32,0,0) tid=(3,9,0)
GPGPU-Sim uArch: Shader 12 finished CTA #0 (51224,0), 5 CTAs running
GPGPU-Sim uArch: core: 12, cta: 0 initialized @(51225,0)
GPGPU-Sim PTX: 15100000 instructions simulated : ctaid=(29,1,0) tid=(15,1,0)
GPGPU-Sim PTX: 15200000 instructions simulated : ctaid=(37,0,0) tid=(7,10,0)
GPGPU-Sim uArch: Shader 3 finished CTA #0 (51753,0), 5 CTAs running
GPGPU-Sim uArch: core:  3, cta: 0 initialized @(51754,0)
GPGPU-Sim PTX: 15300000 instructions simulated : ctaid=(18,0,0) tid=(15,10,0)
GPGPU-Sim uArch: Shader 0 finished CTA #0 (51974,0), 5 CTAs running
GPGPU-Sim uArch: core:  0, cta: 0 initialized @(51975,0)
GPGPU-Sim uArch: cycles simulated: 52000  inst.: 15138240 (ipc=291.1) sim_rate=473070 (inst/sec) elapsed = 0:0:00:32 / Fri Dec 16 07:45:00 2016
GPGPU-Sim PTX: 15400000 instructions simulated : ctaid=(26,0,0) tid=(3,1,0)
GPGPU-Sim PTX: 15500000 instructions simulated : ctaid=(29,0,0) tid=(15,2,0)
GPGPU-Sim PTX: 15600000 instructions simulated : ctaid=(15,0,0) tid=(15,1,0)
GPGPU-Sim PTX: 15700000 instructions simulated : ctaid=(33,0,0) tid=(7,1,0)
GPGPU-Sim uArch: Shader 11 finished CTA #0 (53384,0), 5 CTAs running
GPGPU-Sim uArch: core: 11, cta: 0 initialized @(53385,0)
GPGPU-Sim uArch: cycles simulated: 53500  inst.: 15560336 (ipc=290.8) sim_rate=471525 (inst/sec) elapsed = 0:0:00:33 / Fri Dec 16 07:45:01 2016
GPGPU-Sim PTX: 15800000 instructions simulated : ctaid=(34,0,0) tid=(7,9,0)
GPGPU-Sim PTX: 15900000 instructions simulated : ctaid=(15,0,0) tid=(3,13,0)
GPGPU-Sim PTX: 16000000 instructions simulated : ctaid=(19,0,0) tid=(3,3,0)
GPGPU-Sim PTX: 16100000 instructions simulated : ctaid=(1,0,0) tid=(7,1,0)
GPGPU-Sim PTX: 16200000 instructions simulated : ctaid=(3,1,0) tid=(15,5,0)
GPGPU-Sim PTX: 16300000 instructions simulated : ctaid=(34,0,0) tid=(7,6,0)
GPGPU-Sim uArch: cycles simulated: 55000  inst.: 16099648 (ipc=292.7) sim_rate=473519 (inst/sec) elapsed = 0:0:00:34 / Fri Dec 16 07:45:02 2016
GPGPU-Sim PTX: 16400000 instructions simulated : ctaid=(28,0,0) tid=(7,4,0)
GPGPU-Sim PTX: 16500000 instructions simulated : ctaid=(56,0,0) tid=(7,12,0)
GPGPU-Sim PTX: 16600000 instructions simulated : ctaid=(13,0,0) tid=(7,15,0)
GPGPU-Sim PTX: 16700000 instructions simulated : ctaid=(7,1,0) tid=(7,12,0)
GPGPU-Sim PTX: 16800000 instructions simulated : ctaid=(4,0,0) tid=(7,5,0)
GPGPU-Sim uArch: cycles simulated: 56500  inst.: 16616816 (ipc=294.1) sim_rate=474766 (inst/sec) elapsed = 0:0:00:35 / Fri Dec 16 07:45:03 2016
GPGPU-Sim PTX: 16900000 instructions simulated : ctaid=(13,0,0) tid=(15,11,0)
GPGPU-Sim uArch: Shader 1 finished CTA #0 (56967,0), 5 CTAs running
GPGPU-Sim uArch: core:  1, cta: 0 initialized @(56968,0)
GPGPU-Sim PTX: 17000000 instructions simulated : ctaid=(18,0,0) tid=(15,13,0)
GPGPU-Sim PTX: 17100000 instructions simulated : ctaid=(7,1,0) tid=(15,3,0)
GPGPU-Sim PTX: 17200000 instructions simulated : ctaid=(3,1,0) tid=(15,15,0)
GPGPU-Sim PTX: 17300000 instructions simulated : ctaid=(31,0,0) tid=(15,12,0)
GPGPU-Sim PTX: 17400000 instructions simulated : ctaid=(8,0,0) tid=(7,5,0)
GPGPU-Sim uArch: cycles simulated: 58000  inst.: 17193848 (ipc=296.4) sim_rate=477606 (inst/sec) elapsed = 0:0:00:36 / Fri Dec 16 07:45:04 2016
GPGPU-Sim uArch: Shader 14 finished CTA #0 (58083,0), 5 CTAs running
GPGPU-Sim uArch: core: 14, cta: 0 initialized @(58084,0)
GPGPU-Sim PTX: 17500000 instructions simulated : ctaid=(21,0,0) tid=(15,5,0)
GPGPU-Sim PTX: 17600000 instructions simulated : ctaid=(29,1,0) tid=(15,3,0)
GPGPU-Sim PTX: 17700000 instructions simulated : ctaid=(29,1,0) tid=(15,12,0)
GPGPU-Sim PTX: 17800000 instructions simulated : ctaid=(58,0,0) tid=(15,10,0)
GPGPU-Sim uArch: Shader 10 finished CTA #0 (58944,0), 5 CTAs running
GPGPU-Sim uArch: core: 10, cta: 0 initialized @(58945,0)
GPGPU-Sim uArch: cycles simulated: 59000  inst.: 17608576 (ipc=298.5) sim_rate=475907 (inst/sec) elapsed = 0:0:00:37 / Fri Dec 16 07:45:05 2016
GPGPU-Sim PTX: 17900000 instructions simulated : ctaid=(29,0,0) tid=(15,14,0)
GPGPU-Sim uArch: Shader 2 finished CTA #0 (59359,0), 5 CTAs running
GPGPU-Sim uArch: core:  2, cta: 0 initialized @(59360,0)
GPGPU-Sim PTX: 18000000 instructions simulated : ctaid=(39,0,0) tid=(15,2,0)
GPGPU-Sim PTX: 18100000 instructions simulated : ctaid=(41,0,0) tid=(7,0,0)
GPGPU-Sim PTX: 18200000 instructions simulated : ctaid=(44,0,0) tid=(3,1,0)
GPGPU-Sim PTX: 18300000 instructions simulated : ctaid=(17,0,0) tid=(3,15,0)
GPGPU-Sim uArch: Shader 1 finished CTA #1 (60302,0), 5 CTAs running
GPGPU-Sim uArch: core:  1, cta: 1 initialized @(60303,0)
GPGPU-Sim uArch: cycles simulated: 60500  inst.: 18147224 (ipc=300.0) sim_rate=477558 (inst/sec) elapsed = 0:0:00:38 / Fri Dec 16 07:45:06 2016
GPGPU-Sim PTX: 18400000 instructions simulated : ctaid=(7,1,0) tid=(3,15,0)
GPGPU-Sim PTX: 18500000 instructions simulated : ctaid=(24,0,0) tid=(15,12,0)
GPGPU-Sim PTX: 18600000 instructions simulated : ctaid=(60,0,0) tid=(15,12,0)
GPGPU-Sim PTX: 18700000 instructions simulated : ctaid=(4,0,0) tid=(7,0,0)
GPGPU-Sim PTX: 18800000 instructions simulated : ctaid=(22,0,0) tid=(7,7,0)
GPGPU-Sim uArch: cycles simulated: 62000  inst.: 18615480 (ipc=300.2) sim_rate=477320 (inst/sec) elapsed = 0:0:00:39 / Fri Dec 16 07:45:07 2016
GPGPU-Sim PTX: 18900000 instructions simulated : ctaid=(18,0,0) tid=(7,9,0)
GPGPU-Sim PTX: 19000000 instructions simulated : ctaid=(27,0,0) tid=(15,12,0)
GPGPU-Sim PTX: 19100000 instructions simulated : ctaid=(18,0,0) tid=(7,6,0)
GPGPU-Sim uArch: Shader 8 finished CTA #1 (62824,0), 5 CTAs running
GPGPU-Sim uArch: core:  8, cta: 1 initialized @(62825,0)
GPGPU-Sim PTX: 19200000 instructions simulated : ctaid=(51,0,0) tid=(7,8,0)
GPGPU-Sim PTX: 19300000 instructions simulated : ctaid=(26,1,0) tid=(7,3,0)
GPGPU-Sim PTX: 19400000 instructions simulated : ctaid=(18,0,0) tid=(3,15,0)
GPGPU-Sim uArch: cycles simulated: 63500  inst.: 19185216 (ipc=302.1) sim_rate=479630 (inst/sec) elapsed = 0:0:00:40 / Fri Dec 16 07:45:08 2016
GPGPU-Sim PTX: 19500000 instructions simulated : ctaid=(56,0,0) tid=(7,15,0)
GPGPU-Sim PTX: 19600000 instructions simulated : ctaid=(12,1,0) tid=(7,4,0)
GPGPU-Sim PTX: 19700000 instructions simulated : ctaid=(2,1,0) tid=(7,9,0)
GPGPU-Sim uArch: Shader 12 finished CTA #1 (64246,0), 5 CTAs running
GPGPU-Sim uArch: core: 12, cta: 1 initialized @(64247,0)
GPGPU-Sim uArch: Shader 6 finished CTA #0 (64309,0), 5 CTAs running
GPGPU-Sim uArch: core:  6, cta: 0 initialized @(64310,0)
GPGPU-Sim PTX: 19800000 instructions simulated : ctaid=(4,1,0) tid=(3,11,0)
GPGPU-Sim PTX: 19900000 instructions simulated : ctaid=(1,1,0) tid=(7,15,0)
GPGPU-Sim PTX: 20000000 instructions simulated : ctaid=(12,0,0) tid=(7,14,0)
GPGPU-Sim uArch: cycles simulated: 65000  inst.: 19774536 (ipc=304.2) sim_rate=482305 (inst/sec) elapsed = 0:0:00:41 / Fri Dec 16 07:45:09 2016
GPGPU-Sim PTX: 20100000 instructions simulated : ctaid=(33,0,0) tid=(3,13,0)
GPGPU-Sim uArch: Shader 4 finished CTA #1 (65309,0), 5 CTAs running
GPGPU-Sim uArch: core:  4, cta: 1 initialized @(65310,0)
GPGPU-Sim PTX: 20200000 instructions simulated : ctaid=(37,0,0) tid=(7,0,0)
GPGPU-Sim uArch: Shader 5 finished CTA #0 (65516,0), 5 CTAs running
GPGPU-Sim uArch: core:  5, cta: 0 initialized @(65517,0)
GPGPU-Sim uArch: Shader 13 finished CTA #0 (65531,0), 5 CTAs running
GPGPU-Sim uArch: core: 13, cta: 0 initialized @(65532,0)
GPGPU-Sim PTX: 20300000 instructions simulated : ctaid=(16,1,0) tid=(3,1,0)
GPGPU-Sim PTX: 20400000 instructions simulated : ctaid=(34,0,0) tid=(7,12,0)
GPGPU-Sim uArch: cycles simulated: 66000  inst.: 20157520 (ipc=305.4) sim_rate=479940 (inst/sec) elapsed = 0:0:00:42 / Fri Dec 16 07:45:10 2016
GPGPU-Sim uArch: Shader 7 finished CTA #1 (66253,0), 5 CTAs running
GPGPU-Sim uArch: core:  7, cta: 1 initialized @(66254,0)
GPGPU-Sim PTX: 20500000 instructions simulated : ctaid=(27,0,0) tid=(15,5,0)
GPGPU-Sim PTX: 20600000 instructions simulated : ctaid=(51,0,0) tid=(7,14,0)
GPGPU-Sim PTX: 20700000 instructions simulated : ctaid=(28,0,0) tid=(7,13,0)
GPGPU-Sim PTX: 20800000 instructions simulated : ctaid=(42,0,0) tid=(7,9,0)
GPGPU-Sim PTX: 20900000 instructions simulated : ctaid=(11,1,0) tid=(15,1,0)
GPGPU-Sim uArch: Shader 9 finished CTA #0 (67391,0), 5 CTAs running
GPGPU-Sim uArch: core:  9, cta: 0 initialized @(67392,0)
GPGPU-Sim uArch: cycles simulated: 67500  inst.: 20688248 (ipc=306.5) sim_rate=481122 (inst/sec) elapsed = 0:0:00:43 / Fri Dec 16 07:45:11 2016
GPGPU-Sim PTX: 21000000 instructions simulated : ctaid=(27,0,0) tid=(15,11,0)
GPGPU-Sim PTX: 21100000 instructions simulated : ctaid=(14,1,0) tid=(7,13,0)
GPGPU-Sim PTX: 21200000 instructions simulated : ctaid=(24,0,0) tid=(3,13,0)
GPGPU-Sim PTX: 21300000 instructions simulated : ctaid=(25,0,0) tid=(3,11,0)
GPGPU-Sim PTX: 21400000 instructions simulated : ctaid=(41,0,0) tid=(7,5,0)
GPGPU-Sim PTX: 21500000 instructions simulated : ctaid=(42,0,0) tid=(15,7,0)
GPGPU-Sim uArch: cycles simulated: 69000  inst.: 21261392 (ipc=308.1) sim_rate=483213 (inst/sec) elapsed = 0:0:00:44 / Fri Dec 16 07:45:12 2016
GPGPU-Sim PTX: 21600000 instructions simulated : ctaid=(6,1,0) tid=(7,3,0)
GPGPU-Sim uArch: Shader 5 finished CTA #1 (69341,0), 5 CTAs running
GPGPU-Sim uArch: core:  5, cta: 1 initialized @(69342,0)
GPGPU-Sim PTX: 21700000 instructions simulated : ctaid=(16,0,0) tid=(15,0,0)
GPGPU-Sim uArch: Shader 13 finished CTA #1 (69682,0), 5 CTAs running
GPGPU-Sim uArch: core: 13, cta: 1 initialized @(69683,0)
GPGPU-Sim PTX: 21800000 instructions simulated : ctaid=(23,0,0) tid=(7,1,0)
GPGPU-Sim PTX: 21900000 instructions simulated : ctaid=(39,0,0) tid=(3,7,0)
GPGPU-Sim uArch: Shader 3 finished CTA #1 (70137,0), 5 CTAs running
GPGPU-Sim uArch: core:  3, cta: 1 initialized @(70138,0)
GPGPU-Sim PTX: 22000000 instructions simulated : ctaid=(24,0,0) tid=(15,4,0)
GPGPU-Sim PTX: 22100000 instructions simulated : ctaid=(29,0,0) tid=(3,9,0)
GPGPU-Sim uArch: cycles simulated: 70500  inst.: 21839488 (ipc=309.8) sim_rate=485321 (inst/sec) elapsed = 0:0:00:45 / Fri Dec 16 07:45:13 2016
GPGPU-Sim PTX: 22200000 instructions simulated : ctaid=(45,0,0) tid=(7,9,0)
GPGPU-Sim uArch: Shader 11 finished CTA #1 (70907,0), 5 CTAs running
GPGPU-Sim uArch: core: 11, cta: 1 initialized @(70908,0)
GPGPU-Sim PTX: 22300000 instructions simulated : ctaid=(30,1,0) tid=(7,7,0)
GPGPU-Sim uArch: Shader 9 finished CTA #1 (71007,0), 5 CTAs running
GPGPU-Sim uArch: core:  9, cta: 1 initialized @(71008,0)
GPGPU-Sim PTX: 22400000 instructions simulated : ctaid=(33,0,0) tid=(15,3,0)
GPGPU-Sim PTX: 22500000 instructions simulated : ctaid=(52,0,0) tid=(3,11,0)
GPGPU-Sim uArch: cycles simulated: 71500  inst.: 22228640 (ipc=310.9) sim_rate=483231 (inst/sec) elapsed = 0:0:00:46 / Fri Dec 16 07:45:14 2016
GPGPU-Sim uArch: Shader 0 finished CTA #1 (71609,0), 5 CTAs running
GPGPU-Sim uArch: core:  0, cta: 1 initialized @(71610,0)
GPGPU-Sim PTX: 22600000 instructions simulated : ctaid=(16,0,0) tid=(15,11,0)
GPGPU-Sim PTX: 22700000 instructions simulated : ctaid=(42,0,0) tid=(3,3,0)
GPGPU-Sim PTX: 22800000 instructions simulated : ctaid=(42,0,0) tid=(7,13,0)
GPGPU-Sim PTX: 22900000 instructions simulated : ctaid=(35,0,0) tid=(15,14,0)
GPGPU-Sim PTX: 23000000 instructions simulated : ctaid=(48,1,0) tid=(7,15,0)
GPGPU-Sim uArch: cycles simulated: 73000  inst.: 22748104 (ipc=311.6) sim_rate=484002 (inst/sec) elapsed = 0:0:00:47 / Fri Dec 16 07:45:15 2016
GPGPU-Sim PTX: 23100000 instructions simulated : ctaid=(46,0,0) tid=(7,13,0)
GPGPU-Sim PTX: 23200000 instructions simulated : ctaid=(54,0,0) tid=(15,4,0)
GPGPU-Sim PTX: 23300000 instructions simulated : ctaid=(21,1,0) tid=(7,15,0)
GPGPU-Sim PTX: 23400000 instructions simulated : ctaid=(16,0,0) tid=(3,3,0)
GPGPU-Sim PTX: 23500000 instructions simulated : ctaid=(49,0,0) tid=(15,3,0)
GPGPU-Sim uArch: cycles simulated: 74500  inst.: 23260008 (ipc=312.2) sim_rate=484583 (inst/sec) elapsed = 0:0:00:48 / Fri Dec 16 07:45:16 2016
GPGPU-Sim PTX: 23600000 instructions simulated : ctaid=(28,0,0) tid=(7,2,0)
GPGPU-Sim PTX: 23700000 instructions simulated : ctaid=(48,0,0) tid=(7,12,0)
GPGPU-Sim PTX: 23800000 instructions simulated : ctaid=(25,1,0) tid=(15,10,0)
GPGPU-Sim PTX: 23900000 instructions simulated : ctaid=(5,1,0) tid=(3,7,0)
GPGPU-Sim PTX: 24000000 instructions simulated : ctaid=(57,0,0) tid=(7,5,0)
GPGPU-Sim uArch: Shader 14 finished CTA #1 (75995,0), 5 CTAs running
GPGPU-Sim uArch: core: 14, cta: 1 initialized @(75996,0)
GPGPU-Sim uArch: cycles simulated: 76000  inst.: 23771168 (ipc=312.8) sim_rate=485125 (inst/sec) elapsed = 0:0:00:49 / Fri Dec 16 07:45:17 2016
GPGPU-Sim PTX: 24100000 instructions simulated : ctaid=(4,1,0) tid=(15,14,0)
GPGPU-Sim PTX: 24200000 instructions simulated : ctaid=(47,0,0) tid=(7,7,0)
GPGPU-Sim PTX: 24300000 instructions simulated : ctaid=(39,0,0) tid=(7,5,0)
GPGPU-Sim PTX: 24400000 instructions simulated : ctaid=(16,0,0) tid=(3,5,0)
GPGPU-Sim PTX: 24500000 instructions simulated : ctaid=(51,0,0) tid=(15,3,0)
GPGPU-Sim PTX: 24600000 instructions simulated : ctaid=(53,0,0) tid=(7,3,0)
GPGPU-Sim uArch: cycles simulated: 77500  inst.: 24333512 (ipc=314.0) sim_rate=486670 (inst/sec) elapsed = 0:0:00:50 / Fri Dec 16 07:45:18 2016
GPGPU-Sim uArch: Shader 10 finished CTA #1 (77508,0), 5 CTAs running
GPGPU-Sim uArch: core: 10, cta: 1 initialized @(77509,0)
GPGPU-Sim uArch: Shader 2 finished CTA #1 (77564,0), 5 CTAs running
GPGPU-Sim uArch: core:  2, cta: 1 initialized @(77565,0)
GPGPU-Sim PTX: 24700000 instructions simulated : ctaid=(30,0,0) tid=(3,13,0)
GPGPU-Sim PTX: 24800000 instructions simulated : ctaid=(54,1,0) tid=(7,9,0)
GPGPU-Sim PTX: 24900000 instructions simulated : ctaid=(37,0,0) tid=(15,2,0)
GPGPU-Sim uArch: Shader 13 finished CTA #2 (78321,0), 5 CTAs running
GPGPU-Sim uArch: core: 13, cta: 2 initialized @(78322,0)
GPGPU-Sim PTX: 25000000 instructions simulated : ctaid=(17,1,0) tid=(7,2,0)
GPGPU-Sim uArch: cycles simulated: 78500  inst.: 24704816 (ipc=314.7) sim_rate=484408 (inst/sec) elapsed = 0:0:00:51 / Fri Dec 16 07:45:19 2016
GPGPU-Sim PTX: 25100000 instructions simulated : ctaid=(7,1,0) tid=(15,6,0)
GPGPU-Sim PTX: 25200000 instructions simulated : ctaid=(55,1,0) tid=(3,1,0)
GPGPU-Sim uArch: Shader 1 finished CTA #2 (79191,0), 5 CTAs running
GPGPU-Sim uArch: core:  1, cta: 2 initialized @(79192,0)
GPGPU-Sim PTX: 25300000 instructions simulated : ctaid=(41,0,0) tid=(15,12,0)
GPGPU-Sim uArch: Shader 8 finished CTA #2 (79517,0), 5 CTAs running
GPGPU-Sim uArch: core:  8, cta: 2 initialized @(79518,0)
GPGPU-Sim PTX: 25400000 instructions simulated : ctaid=(35,0,0) tid=(15,9,0)
GPGPU-Sim PTX: 25500000 instructions simulated : ctaid=(10,1,0) tid=(3,1,0)
GPGPU-Sim uArch: cycles simulated: 80000  inst.: 25254176 (ipc=315.7) sim_rate=485657 (inst/sec) elapsed = 0:0:00:52 / Fri Dec 16 07:45:20 2016
GPGPU-Sim PTX: 25600000 instructions simulated : ctaid=(19,1,0) tid=(7,1,0)
GPGPU-Sim uArch: Shader 10 finished CTA #2 (80150,0), 5 CTAs running
GPGPU-Sim uArch: core: 10, cta: 2 initialized @(80151,0)
GPGPU-Sim PTX: 25700000 instructions simulated : ctaid=(41,0,0) tid=(7,11,0)
GPGPU-Sim PTX: 25800000 instructions simulated : ctaid=(54,0,0) tid=(7,12,0)
GPGPU-Sim PTX: 25900000 instructions simulated : ctaid=(12,1,0) tid=(7,11,0)
GPGPU-Sim uArch: Shader 6 finished CTA #1 (80836,0), 5 CTAs running
GPGPU-Sim uArch: core:  6, cta: 1 initialized @(80837,0)
GPGPU-Sim uArch: Shader 14 finished CTA #2 (80964,0), 5 CTAs running
GPGPU-Sim uArch: core: 14, cta: 2 initialized @(80965,0)
GPGPU-Sim PTX: 26000000 instructions simulated : ctaid=(61,0,0) tid=(7,14,0)
GPGPU-Sim PTX: 26100000 instructions simulated : ctaid=(17,1,0) tid=(15,3,0)
GPGPU-Sim uArch: Shader 2 finished CTA #2 (81370,0), 5 CTAs running
GPGPU-Sim uArch: core:  2, cta: 2 initialized @(81371,0)
GPGPU-Sim uArch: cycles simulated: 81500  inst.: 25842880 (ipc=317.1) sim_rate=487601 (inst/sec) elapsed = 0:0:00:53 / Fri Dec 16 07:45:21 2016
GPGPU-Sim PTX: 26200000 instructions simulated : ctaid=(14,1,0) tid=(15,13,0)
GPGPU-Sim PTX: 26300000 instructions simulated : ctaid=(56,0,0) tid=(15,5,0)
GPGPU-Sim uArch: Shader 4 finished CTA #2 (81927,0), 5 CTAs running
GPGPU-Sim uArch: core:  4, cta: 2 initialized @(81928,0)
GPGPU-Sim PTX: 26400000 instructions simulated : ctaid=(63,0,0) tid=(15,4,0)
GPGPU-Sim PTX: 26500000 instructions simulated : ctaid=(46,0,0) tid=(15,13,0)
GPGPU-Sim uArch: cycles simulated: 82500  inst.: 26236904 (ipc=318.0) sim_rate=485868 (inst/sec) elapsed = 0:0:00:54 / Fri Dec 16 07:45:22 2016
GPGPU-Sim uArch: Shader 12 finished CTA #2 (82510,0), 5 CTAs running
GPGPU-Sim uArch: core: 12, cta: 2 initialized @(82511,0)
GPGPU-Sim PTX: 26600000 instructions simulated : ctaid=(14,1,0) tid=(7,5,0)
GPGPU-Sim PTX: 26700000 instructions simulated : ctaid=(22,1,0) tid=(7,4,0)
GPGPU-Sim PTX: 26800000 instructions simulated : ctaid=(22,1,0) tid=(3,11,0)
GPGPU-Sim uArch: Shader 5 finished CTA #2 (83290,0), 5 CTAs running
GPGPU-Sim uArch: core:  5, cta: 2 initialized @(83291,0)
GPGPU-Sim PTX: 26900000 instructions simulated : ctaid=(60,1,0) tid=(15,2,0)
GPGPU-Sim PTX: 27000000 instructions simulated : ctaid=(41,1,0) tid=(15,7,0)
GPGPU-Sim PTX: 27100000 instructions simulated : ctaid=(55,0,0) tid=(15,14,0)
GPGPU-Sim uArch: cycles simulated: 84000  inst.: 26827320 (ipc=319.4) sim_rate=487769 (inst/sec) elapsed = 0:0:00:55 / Fri Dec 16 07:45:23 2016
GPGPU-Sim PTX: 27200000 instructions simulated : ctaid=(36,0,0) tid=(15,7,0)
GPGPU-Sim uArch: Shader 9 finished CTA #2 (84345,0), 5 CTAs running
GPGPU-Sim uArch: core:  9, cta: 2 initialized @(84346,0)
GPGPU-Sim PTX: 27300000 instructions simulated : ctaid=(47,0,0) tid=(3,5,0)
GPGPU-Sim PTX: 27400000 instructions simulated : ctaid=(15,1,0) tid=(7,1,0)
GPGPU-Sim PTX: 27500000 instructions simulated : ctaid=(12,1,0) tid=(7,3,0)
GPGPU-Sim PTX: 27600000 instructions simulated : ctaid=(42,1,0) tid=(3,1,0)
GPGPU-Sim uArch: Shader 6 finished CTA #2 (85426,0), 5 CTAs running
GPGPU-Sim uArch: core:  6, cta: 2 initialized @(85427,0)
GPGPU-Sim uArch: cycles simulated: 85500  inst.: 27349408 (ipc=319.9) sim_rate=488382 (inst/sec) elapsed = 0:0:00:56 / Fri Dec 16 07:45:24 2016
GPGPU-Sim PTX: 27700000 instructions simulated : ctaid=(63,0,0) tid=(15,3,0)
GPGPU-Sim PTX: 27800000 instructions simulated : ctaid=(16,1,0) tid=(15,0,0)
GPGPU-Sim PTX: 27900000 instructions simulated : ctaid=(6,1,0) tid=(7,3,0)
GPGPU-Sim PTX: 28000000 instructions simulated : ctaid=(50,0,0) tid=(15,15,0)
GPGPU-Sim PTX: 28100000 instructions simulated : ctaid=(63,0,0) tid=(7,3,0)
GPGPU-Sim PTX: 28200000 instructions simulated : ctaid=(19,1,0) tid=(15,6,0)
GPGPU-Sim uArch: cycles simulated: 87000  inst.: 27885008 (ipc=320.5) sim_rate=489210 (inst/sec) elapsed = 0:0:00:57 / Fri Dec 16 07:45:25 2016
GPGPU-Sim PTX: 28300000 instructions simulated : ctaid=(52,0,0) tid=(15,5,0)
GPGPU-Sim PTX: 28400000 instructions simulated : ctaid=(63,0,0) tid=(15,1,0)
GPGPU-Sim PTX: 28500000 instructions simulated : ctaid=(45,1,0) tid=(15,14,0)
GPGPU-Sim PTX: 28600000 instructions simulated : ctaid=(32,0,0) tid=(3,13,0)
GPGPU-Sim uArch: cycles simulated: 88000  inst.: 28267112 (ipc=321.2) sim_rate=487364 (inst/sec) elapsed = 0:0:00:58 / Fri Dec 16 07:45:26 2016
GPGPU-Sim PTX: 28700000 instructions simulated : ctaid=(48,0,0) tid=(7,11,0)
GPGPU-Sim PTX: 28800000 instructions simulated : ctaid=(22,1,0) tid=(15,14,0)
GPGPU-Sim uArch: Shader 1 finished CTA #3 (88798,0), 5 CTAs running
GPGPU-Sim uArch: core:  1, cta: 3 initialized @(88799,0)
GPGPU-Sim PTX: 28900000 instructions simulated : ctaid=(58,0,0) tid=(7,0,0)
GPGPU-Sim PTX: 29000000 instructions simulated : ctaid=(34,1,0) tid=(7,9,0)
GPGPU-Sim PTX: 29100000 instructions simulated : ctaid=(4,1,0) tid=(15,6,0)
GPGPU-Sim uArch: cycles simulated: 89500  inst.: 28807456 (ipc=321.9) sim_rate=488261 (inst/sec) elapsed = 0:0:00:59 / Fri Dec 16 07:45:27 2016
GPGPU-Sim PTX: 29200000 instructions simulated : ctaid=(57,0,0) tid=(15,9,0)
GPGPU-Sim PTX: 29300000 instructions simulated : ctaid=(5,1,0) tid=(7,8,0)
GPGPU-Sim PTX: 29400000 instructions simulated : ctaid=(16,1,0) tid=(3,15,0)
GPGPU-Sim PTX: 29500000 instructions simulated : ctaid=(1,1,0) tid=(7,1,0)
GPGPU-Sim PTX: 29600000 instructions simulated : ctaid=(56,1,0) tid=(3,1,0)
GPGPU-Sim uArch: cycles simulated: 91000  inst.: 29274872 (ipc=321.7) sim_rate=487914 (inst/sec) elapsed = 0:0:01:00 / Fri Dec 16 07:45:28 2016
GPGPU-Sim PTX: 29700000 instructions simulated : ctaid=(13,1,0) tid=(15,2,0)
GPGPU-Sim PTX: 29800000 instructions simulated : ctaid=(38,1,0) tid=(7,8,0)
GPGPU-Sim PTX: 29900000 instructions simulated : ctaid=(48,0,0) tid=(7,9,0)
GPGPU-Sim PTX: 30000000 instructions simulated : ctaid=(34,1,0) tid=(7,0,0)
GPGPU-Sim uArch: cycles simulated: 92500  inst.: 29709672 (ipc=321.2) sim_rate=487043 (inst/sec) elapsed = 0:0:01:01 / Fri Dec 16 07:45:29 2016
GPGPU-Sim PTX: 30100000 instructions simulated : ctaid=(11,1,0) tid=(7,11,0)
GPGPU-Sim uArch: Shader 0 finished CTA #2 (92684,0), 5 CTAs running
GPGPU-Sim uArch: core:  0, cta: 2 initialized @(92685,0)
GPGPU-Sim PTX: 30200000 instructions simulated : ctaid=(19,1,0) tid=(7,7,0)
GPGPU-Sim PTX: 30300000 instructions simulated : ctaid=(4,1,0) tid=(7,14,0)
GPGPU-Sim PTX: 30400000 instructions simulated : ctaid=(50,0,0) tid=(15,6,0)
GPGPU-Sim PTX: 30500000 instructions simulated : ctaid=(61,0,0) tid=(15,6,0)
GPGPU-Sim uArch: cycles simulated: 94000  inst.: 30161160 (ipc=320.9) sim_rate=486470 (inst/sec) elapsed = 0:0:01:02 / Fri Dec 16 07:45:30 2016
GPGPU-Sim PTX: 30600000 instructions simulated : ctaid=(13,1,0) tid=(7,14,0)
GPGPU-Sim PTX: 30700000 instructions simulated : ctaid=(52,0,0) tid=(3,15,0)
GPGPU-Sim PTX: 30800000 instructions simulated : ctaid=(34,1,0) tid=(7,4,0)
GPGPU-Sim PTX: 30900000 instructions simulated : ctaid=(1,2,0) tid=(3,3,0)
GPGPU-Sim uArch: cycles simulated: 95500  inst.: 30600552 (ipc=320.4) sim_rate=485723 (inst/sec) elapsed = 0:0:01:03 / Fri Dec 16 07:45:31 2016
GPGPU-Sim PTX: 31000000 instructions simulated : ctaid=(14,1,0) tid=(7,4,0)
GPGPU-Sim PTX: 31100000 instructions simulated : ctaid=(8,1,0) tid=(15,0,0)
GPGPU-Sim PTX: 31200000 instructions simulated : ctaid=(48,0,0) tid=(15,15,0)
GPGPU-Sim PTX: 31300000 instructions simulated : ctaid=(13,1,0) tid=(7,11,0)
GPGPU-Sim PTX: 31400000 instructions simulated : ctaid=(60,0,0) tid=(15,3,0)
GPGPU-Sim PTX: 31500000 instructions simulated : ctaid=(31,1,0) tid=(15,3,0)
GPGPU-Sim uArch: cycles simulated: 97000  inst.: 31122224 (ipc=320.8) sim_rate=486284 (inst/sec) elapsed = 0:0:01:04 / Fri Dec 16 07:45:32 2016
GPGPU-Sim uArch: Shader 2 finished CTA #3 (97125,0), 5 CTAs running
GPGPU-Sim uArch: core:  2, cta: 3 initialized @(97126,0)
GPGPU-Sim PTX: 31600000 instructions simulated : ctaid=(17,1,0) tid=(15,10,0)
GPGPU-Sim uArch: Shader 3 finished CTA #2 (97479,0), 5 CTAs running
GPGPU-Sim uArch: core:  3, cta: 2 initialized @(97480,0)
GPGPU-Sim uArch: Shader 11 finished CTA #2 (97486,0), 5 CTAs running
GPGPU-Sim uArch: core: 11, cta: 2 initialized @(97487,0)
GPGPU-Sim PTX: 31700000 instructions simulated : ctaid=(62,0,0) tid=(15,4,0)
GPGPU-Sim uArch: Shader 7 finished CTA #2 (97527,0), 5 CTAs running
GPGPU-Sim uArch: core:  7, cta: 2 initialized @(97528,0)
GPGPU-Sim PTX: 31800000 instructions simulated : ctaid=(43,1,0) tid=(7,15,0)
GPGPU-Sim uArch: cycles simulated: 98000  inst.: 31508272 (ipc=321.5) sim_rate=484742 (inst/sec) elapsed = 0:0:01:05 / Fri Dec 16 07:45:33 2016
GPGPU-Sim PTX: 31900000 instructions simulated : ctaid=(62,0,0) tid=(15,15,0)
GPGPU-Sim PTX: 32000000 instructions simulated : ctaid=(2,1,0) tid=(15,2,0)
GPGPU-Sim PTX: 32100000 instructions simulated : ctaid=(57,1,0) tid=(7,5,0)
GPGPU-Sim PTX: 32200000 instructions simulated : ctaid=(24,1,0) tid=(15,15,0)
GPGPU-Sim PTX: 32300000 instructions simulated : ctaid=(11,1,0) tid=(3,15,0)
GPGPU-Sim uArch: cycles simulated: 99500  inst.: 31963712 (ipc=321.2) sim_rate=484298 (inst/sec) elapsed = 0:0:01:06 / Fri Dec 16 07:45:34 2016
GPGPU-Sim PTX: 32400000 instructions simulated : ctaid=(16,1,0) tid=(7,0,0)
GPGPU-Sim PTX: 32500000 instructions simulated : ctaid=(9,1,0) tid=(15,13,0)
GPGPU-Sim PTX: 32600000 instructions simulated : ctaid=(7,1,0) tid=(7,11,0)
GPGPU-Sim PTX: 32700000 instructions simulated : ctaid=(4,2,0) tid=(7,13,0)
GPGPU-Sim PTX: 32800000 instructions simulated : ctaid=(4,1,0) tid=(7,13,0)
GPGPU-Sim uArch: cycles simulated: 101000  inst.: 32410384 (ipc=320.9) sim_rate=483737 (inst/sec) elapsed = 0:0:01:07 / Fri Dec 16 07:45:35 2016
GPGPU-Sim PTX: 32900000 instructions simulated : ctaid=(29,1,0) tid=(15,0,0)
GPGPU-Sim uArch: Shader 13 finished CTA #3 (101532,0), 5 CTAs running
GPGPU-Sim uArch: core: 13, cta: 3 initialized @(101533,0)
GPGPU-Sim PTX: 33000000 instructions simulated : ctaid=(15,1,0) tid=(15,12,0)
GPGPU-Sim PTX: 33100000 instructions simulated : ctaid=(56,0,0) tid=(7,0,0)
GPGPU-Sim PTX: 33200000 instructions simulated : ctaid=(8,1,0) tid=(15,1,0)
GPGPU-Sim uArch: cycles simulated: 102500  inst.: 32837000 (ipc=320.4) sim_rate=482897 (inst/sec) elapsed = 0:0:01:08 / Fri Dec 16 07:45:36 2016
GPGPU-Sim PTX: 33300000 instructions simulated : ctaid=(3,1,0) tid=(7,7,0)
GPGPU-Sim PTX: 33400000 instructions simulated : ctaid=(21,1,0) tid=(7,13,0)
GPGPU-Sim PTX: 33500000 instructions simulated : ctaid=(40,1,0) tid=(15,2,0)
GPGPU-Sim PTX: 33600000 instructions simulated : ctaid=(12,1,0) tid=(7,3,0)
GPGPU-Sim PTX: 33700000 instructions simulated : ctaid=(33,1,0) tid=(7,5,0)
GPGPU-Sim uArch: cycles simulated: 104000  inst.: 33307680 (ipc=320.3) sim_rate=482720 (inst/sec) elapsed = 0:0:01:09 / Fri Dec 16 07:45:37 2016
GPGPU-Sim PTX: 33800000 instructions simulated : ctaid=(61,1,0) tid=(7,14,0)
GPGPU-Sim uArch: Shader 6 finished CTA #3 (104394,0), 5 CTAs running
GPGPU-Sim uArch: core:  6, cta: 3 initialized @(104395,0)
GPGPU-Sim PTX: 33900000 instructions simulated : ctaid=(57,1,0) tid=(15,14,0)
GPGPU-Sim PTX: 34000000 instructions simulated : ctaid=(62,0,0) tid=(15,3,0)
GPGPU-Sim PTX: 34100000 instructions simulated : ctaid=(22,1,0) tid=(7,1,0)
GPGPU-Sim uArch: Shader 7 finished CTA #3 (105129,0), 5 CTAs running
GPGPU-Sim uArch: core:  7, cta: 3 initialized @(105130,0)
GPGPU-Sim PTX: 34200000 instructions simulated : ctaid=(49,0,0) tid=(7,14,0)
GPGPU-Sim uArch: cycles simulated: 105500  inst.: 33871544 (ipc=321.1) sim_rate=483879 (inst/sec) elapsed = 0:0:01:10 / Fri Dec 16 07:45:38 2016
GPGPU-Sim PTX: 34300000 instructions simulated : ctaid=(29,1,0) tid=(15,4,0)
GPGPU-Sim PTX: 34400000 instructions simulated : ctaid=(26,1,0) tid=(15,7,0)
GPGPU-Sim PTX: 34500000 instructions simulated : ctaid=(59,0,0) tid=(15,4,0)
GPGPU-Sim uArch: Shader 11 finished CTA #3 (106058,0), 5 CTAs running
GPGPU-Sim uArch: core: 11, cta: 3 initialized @(106059,0)
GPGPU-Sim uArch: Shader 2 finished CTA #4 (106204,0), 5 CTAs running
GPGPU-Sim uArch: core:  2, cta: 4 initialized @(106205,0)
GPGPU-Sim PTX: 34600000 instructions simulated : ctaid=(10,1,0) tid=(7,2,0)
GPGPU-Sim uArch: Shader 14 finished CTA #3 (106426,0), 5 CTAs running
GPGPU-Sim uArch: core: 14, cta: 3 initialized @(106427,0)
GPGPU-Sim PTX: 34700000 instructions simulated : ctaid=(21,1,0) tid=(15,1,0)
GPGPU-Sim uArch: Shader 0 finished CTA #3 (106673,0), 5 CTAs running
GPGPU-Sim uArch: core:  0, cta: 3 initialized @(106674,0)
GPGPU-Sim uArch: Shader 8 finished CTA #4 (106699,0), 5 CTAs running
GPGPU-Sim uArch: core:  8, cta: 4 initialized @(106700,0)
GPGPU-Sim PTX: 34800000 instructions simulated : ctaid=(2,1,0) tid=(3,3,0)
GPGPU-Sim uArch: Shader 10 finished CTA #3 (106896,0), 5 CTAs running
GPGPU-Sim uArch: core: 10, cta: 3 initialized @(106897,0)
GPGPU-Sim PTX: 34900000 instructions simulated : ctaid=(15,1,0) tid=(15,10,0)
GPGPU-Sim uArch: cycles simulated: 107000  inst.: 34496696 (ipc=322.4) sim_rate=485868 (inst/sec) elapsed = 0:0:01:11 / Fri Dec 16 07:45:39 2016
GPGPU-Sim uArch: Shader 9 finished CTA #3 (107211,0), 5 CTAs running
GPGPU-Sim uArch: core:  9, cta: 3 initialized @(107212,0)
GPGPU-Sim PTX: 35000000 instructions simulated : ctaid=(41,1,0) tid=(15,2,0)
GPGPU-Sim uArch: Shader 3 finished CTA #3 (107217,0), 5 CTAs running
GPGPU-Sim uArch: core:  3, cta: 3 initialized @(107218,0)
GPGPU-Sim PTX: 35100000 instructions simulated : ctaid=(52,0,0) tid=(7,12,0)
GPGPU-Sim uArch: Shader 7 finished CTA #4 (107626,0), 5 CTAs running
GPGPU-Sim uArch: core:  7, cta: 4 initialized @(107627,0)
GPGPU-Sim PTX: 35200000 instructions simulated : ctaid=(40,1,0) tid=(15,14,0)
GPGPU-Sim uArch: Shader 3 finished CTA #4 (107782,0), 5 CTAs running
GPGPU-Sim uArch: core:  3, cta: 4 initialized @(107783,0)
GPGPU-Sim PTX: 35300000 instructions simulated : ctaid=(35,1,0) tid=(7,13,0)
GPGPU-Sim PTX: 35400000 instructions simulated : ctaid=(17,2,0) tid=(7,7,0)
GPGPU-Sim uArch: cycles simulated: 108500  inst.: 34998680 (ipc=322.6) sim_rate=486092 (inst/sec) elapsed = 0:0:01:12 / Fri Dec 16 07:45:40 2016
GPGPU-Sim PTX: 35500000 instructions simulated : ctaid=(60,1,0) tid=(15,14,0)
GPGPU-Sim PTX: 35600000 instructions simulated : ctaid=(32,1,0) tid=(3,5,0)
GPGPU-Sim PTX: 35700000 instructions simulated : ctaid=(30,1,0) tid=(15,15,0)
GPGPU-Sim uArch: Shader 4 finished CTA #3 (109266,0), 5 CTAs running
GPGPU-Sim uArch: core:  4, cta: 3 initialized @(109267,0)
GPGPU-Sim uArch: Shader 12 finished CTA #4 (109336,0), 5 CTAs running
GPGPU-Sim uArch: core: 12, cta: 4 initialized @(109337,0)
GPGPU-Sim PTX: 35800000 instructions simulated : ctaid=(16,1,0) tid=(7,9,0)
GPGPU-Sim uArch: Shader 5 finished CTA #3 (109608,0), 5 CTAs running
GPGPU-Sim uArch: core:  5, cta: 3 initialized @(109609,0)
GPGPU-Sim PTX: 35900000 instructions simulated : ctaid=(52,1,0) tid=(15,15,0)
GPGPU-Sim uArch: cycles simulated: 110000  inst.: 35558744 (ipc=323.3) sim_rate=487106 (inst/sec) elapsed = 0:0:01:13 / Fri Dec 16 07:45:41 2016
GPGPU-Sim PTX: 36000000 instructions simulated : ctaid=(38,1,0) tid=(3,15,0)
GPGPU-Sim PTX: 36100000 instructions simulated : ctaid=(18,1,0) tid=(15,5,0)
GPGPU-Sim PTX: 36200000 instructions simulated : ctaid=(52,0,0) tid=(7,4,0)
GPGPU-Sim uArch: Shader 4 finished CTA #4 (110684,0), 5 CTAs running
GPGPU-Sim uArch: core:  4, cta: 4 initialized @(110685,0)
GPGPU-Sim PTX: 36300000 instructions simulated : ctaid=(53,1,0) tid=(7,13,0)
GPGPU-Sim PTX: 36400000 instructions simulated : ctaid=(4,2,0) tid=(15,4,0)
GPGPU-Sim uArch: Shader 0 finished CTA #4 (111229,0), 5 CTAs running
GPGPU-Sim uArch: core:  0, cta: 4 initialized @(111230,0)
GPGPU-Sim uArch: Shader 12 finished CTA #3 (111241,0), 5 CTAs running
GPGPU-Sim uArch: core: 12, cta: 3 initialized @(111242,0)
GPGPU-Sim PTX: 36500000 instructions simulated : ctaid=(25,2,0) tid=(3,5,0)
GPGPU-Sim uArch: cycles simulated: 111500  inst.: 36133896 (ipc=324.1) sim_rate=488295 (inst/sec) elapsed = 0:0:01:14 / Fri Dec 16 07:45:42 2016
GPGPU-Sim PTX: 36600000 instructions simulated : ctaid=(30,1,0) tid=(7,8,0)
GPGPU-Sim PTX: 36700000 instructions simulated : ctaid=(8,2,0) tid=(15,8,0)
GPGPU-Sim PTX: 36800000 instructions simulated : ctaid=(60,0,0) tid=(7,0,0)
GPGPU-Sim uArch: Shader 11 finished CTA #4 (112140,0), 5 CTAs running
GPGPU-Sim uArch: core: 11, cta: 4 initialized @(112141,0)
GPGPU-Sim uArch: Shader 8 finished CTA #3 (112167,0), 5 CTAs running
GPGPU-Sim uArch: core:  8, cta: 3 initialized @(112168,0)
GPGPU-Sim PTX: 36900000 instructions simulated : ctaid=(58,1,0) tid=(7,11,0)
GPGPU-Sim PTX: 37000000 instructions simulated : ctaid=(21,1,0) tid=(7,8,0)
GPGPU-Sim uArch: cycles simulated: 112500  inst.: 36548208 (ipc=324.9) sim_rate=487309 (inst/sec) elapsed = 0:0:01:15 / Fri Dec 16 07:45:43 2016
GPGPU-Sim uArch: Shader 9 finished CTA #4 (112620,0), 5 CTAs running
GPGPU-Sim uArch: core:  9, cta: 4 initialized @(112621,0)
GPGPU-Sim PTX: 37100000 instructions simulated : ctaid=(12,1,0) tid=(7,3,0)
GPGPU-Sim PTX: 37200000 instructions simulated : ctaid=(4,2,0) tid=(15,11,0)
GPGPU-Sim uArch: Shader 13 finished CTA #4 (113133,0), 5 CTAs running
GPGPU-Sim uArch: core: 13, cta: 4 initialized @(113134,0)
GPGPU-Sim PTX: 37300000 instructions simulated : ctaid=(24,1,0) tid=(3,11,0)
GPGPU-Sim PTX: 37400000 instructions simulated : ctaid=(0,1,0) tid=(15,0,0)
GPGPU-Sim PTX: 37500000 instructions simulated : ctaid=(36,1,0) tid=(7,7,0)
GPGPU-Sim uArch: cycles simulated: 114000  inst.: 37106312 (ipc=325.5) sim_rate=488240 (inst/sec) elapsed = 0:0:01:16 / Fri Dec 16 07:45:44 2016
GPGPU-Sim PTX: 37600000 instructions simulated : ctaid=(0,1,0) tid=(7,12,0)
GPGPU-Sim PTX: 37700000 instructions simulated : ctaid=(20,1,0) tid=(3,7,0)
GPGPU-Sim uArch: Shader 1 finished CTA #4 (114500,0), 5 CTAs running
GPGPU-Sim uArch: core:  1, cta: 4 initialized @(114501,0)
GPGPU-Sim PTX: 37800000 instructions simulated : ctaid=(34,1,0) tid=(3,9,0)
GPGPU-Sim PTX: 37900000 instructions simulated : ctaid=(17,1,0) tid=(15,9,0)
GPGPU-Sim PTX: 38000000 instructions simulated : ctaid=(49,1,0) tid=(7,3,0)
GPGPU-Sim PTX: 38100000 instructions simulated : ctaid=(49,1,0) tid=(7,1,0)
GPGPU-Sim uArch: cycles simulated: 115500  inst.: 37713584 (ipc=326.5) sim_rate=489786 (inst/sec) elapsed = 0:0:01:17 / Fri Dec 16 07:45:45 2016
GPGPU-Sim PTX: 38200000 instructions simulated : ctaid=(33,1,0) tid=(15,10,0)
GPGPU-Sim uArch: Shader 5 finished CTA #4 (115565,0), 5 CTAs running
GPGPU-Sim uArch: core:  5, cta: 4 initialized @(115566,0)
GPGPU-Sim PTX: 38300000 instructions simulated : ctaid=(50,1,0) tid=(7,6,0)
GPGPU-Sim PTX: 38400000 instructions simulated : ctaid=(29,1,0) tid=(15,15,0)
GPGPU-Sim PTX: 38500000 instructions simulated : ctaid=(44,1,0) tid=(15,4,0)
GPGPU-Sim uArch: cycles simulated: 116500  inst.: 38112504 (ipc=327.1) sim_rate=488621 (inst/sec) elapsed = 0:0:01:18 / Fri Dec 16 07:45:46 2016
GPGPU-Sim PTX: 38600000 instructions simulated : ctaid=(9,1,0) tid=(7,6,0)
GPGPU-Sim PTX: 38700000 instructions simulated : ctaid=(47,1,0) tid=(7,1,0)
GPGPU-Sim PTX: 38800000 instructions simulated : ctaid=(31,1,0) tid=(7,6,0)
GPGPU-Sim PTX: 38900000 instructions simulated : ctaid=(12,1,0) tid=(3,13,0)
GPGPU-Sim PTX: 39000000 instructions simulated : ctaid=(20,1,0) tid=(7,1,0)
GPGPU-Sim PTX: 39100000 instructions simulated : ctaid=(62,1,0) tid=(3,11,0)
GPGPU-Sim uArch: cycles simulated: 118000  inst.: 38638896 (ipc=327.4) sim_rate=489099 (inst/sec) elapsed = 0:0:01:19 / Fri Dec 16 07:45:47 2016
GPGPU-Sim PTX: 39200000 instructions simulated : ctaid=(24,1,0) tid=(15,1,0)
GPGPU-Sim PTX: 39300000 instructions simulated : ctaid=(15,1,0) tid=(15,11,0)
GPGPU-Sim PTX: 39400000 instructions simulated : ctaid=(11,1,0) tid=(7,13,0)
GPGPU-Sim uArch: Shader 2 finished CTA #5 (118916,0), 5 CTAs running
GPGPU-Sim uArch: core:  2, cta: 5 initialized @(118917,0)
GPGPU-Sim PTX: 39500000 instructions simulated : ctaid=(32,1,0) tid=(7,5,0)
GPGPU-Sim PTX: 39600000 instructions simulated : ctaid=(25,1,0) tid=(15,11,0)
GPGPU-Sim PTX: 39700000 instructions simulated : ctaid=(9,1,0) tid=(7,15,0)
GPGPU-Sim uArch: cycles simulated: 119500  inst.: 39216776 (ipc=328.2) sim_rate=490209 (inst/sec) elapsed = 0:0:01:20 / Fri Dec 16 07:45:48 2016
GPGPU-Sim PTX: 39800000 instructions simulated : ctaid=(14,1,0) tid=(3,11,0)
GPGPU-Sim PTX: 39900000 instructions simulated : ctaid=(36,1,0) tid=(7,6,0)
GPGPU-Sim PTX: 40000000 instructions simulated : ctaid=(27,1,0) tid=(7,12,0)
GPGPU-Sim uArch: Shader 8 finished CTA #5 (120336,0), 5 CTAs running
GPGPU-Sim uArch: core:  8, cta: 5 initialized @(120337,0)
GPGPU-Sim uArch: cycles simulated: 120500  inst.: 39609936 (ipc=328.7) sim_rate=489011 (inst/sec) elapsed = 0:0:01:21 / Fri Dec 16 07:45:49 2016
GPGPU-Sim PTX: 40100000 instructions simulated : ctaid=(8,2,0) tid=(15,7,0)
GPGPU-Sim PTX: 40200000 instructions simulated : ctaid=(43,1,0) tid=(15,7,0)
GPGPU-Sim uArch: Shader 13 finished CTA #5 (120813,0), 5 CTAs running
GPGPU-Sim uArch: core: 13, cta: 5 initialized @(120814,0)
GPGPU-Sim uArch: Shader 12 finished CTA #5 (120862,0), 5 CTAs running
GPGPU-Sim uArch: core: 12, cta: 5 initialized @(120863,0)
GPGPU-Sim PTX: 40300000 instructions simulated : ctaid=(28,1,0) tid=(3,3,0)
GPGPU-Sim PTX: 40400000 instructions simulated : ctaid=(31,1,0) tid=(3,11,0)
GPGPU-Sim PTX: 40500000 instructions simulated : ctaid=(38,1,0) tid=(15,8,0)
GPGPU-Sim PTX: 40600000 instructions simulated : ctaid=(39,1,0) tid=(15,8,0)
GPGPU-Sim uArch: cycles simulated: 122000  inst.: 40194352 (ipc=329.5) sim_rate=490175 (inst/sec) elapsed = 0:0:01:22 / Fri Dec 16 07:45:50 2016
GPGPU-Sim PTX: 40700000 instructions simulated : ctaid=(54,1,0) tid=(7,12,0)
GPGPU-Sim PTX: 40800000 instructions simulated : ctaid=(61,1,0) tid=(3,5,0)
GPGPU-Sim uArch: Shader 4 finished CTA #5 (122363,0), 5 CTAs running
GPGPU-Sim uArch: core:  4, cta: 5 initialized @(122364,0)
GPGPU-Sim PTX: 40900000 instructions simulated : ctaid=(28,1,0) tid=(7,7,0)
GPGPU-Sim PTX: 41000000 instructions simulated : ctaid=(27,1,0) tid=(7,14,0)
GPGPU-Sim uArch: Shader 1 finished CTA #5 (123027,0), 5 CTAs running
GPGPU-Sim uArch: core:  1, cta: 5 initialized @(123028,0)
GPGPU-Sim PTX: 41100000 instructions simulated : ctaid=(7,2,0) tid=(7,3,0)
GPGPU-Sim PTX: 41200000 instructions simulated : ctaid=(57,1,0) tid=(15,6,0)
GPGPU-Sim uArch: cycles simulated: 123500  inst.: 40777504 (ipc=330.2) sim_rate=491295 (inst/sec) elapsed = 0:0:01:23 / Fri Dec 16 07:45:51 2016
GPGPU-Sim PTX: 41300000 instructions simulated : ctaid=(17,1,0) tid=(15,4,0)
GPGPU-Sim PTX: 41400000 instructions simulated : ctaid=(54,1,0) tid=(15,5,0)
GPGPU-Sim PTX: 41500000 instructions simulated : ctaid=(9,2,0) tid=(15,14,0)
GPGPU-Sim uArch: Shader 10 finished CTA #4 (124222,0), 5 CTAs running
GPGPU-Sim uArch: core: 10, cta: 4 initialized @(124223,0)
GPGPU-Sim PTX: 41600000 instructions simulated : ctaid=(36,1,0) tid=(3,3,0)
GPGPU-Sim uArch: cycles simulated: 124500  inst.: 41163808 (ipc=330.6) sim_rate=490045 (inst/sec) elapsed = 0:0:01:24 / Fri Dec 16 07:45:52 2016
[...]
traffic_breakdown_memtocore[GLOBAL_ACC_R] = 556278352 {136:4090282,}
traffic_breakdown_memtocore[GLOBAL_ACC_W] = 524288 {8:65536,}
traffic_breakdown_memtocore[INST_ACC_R] = 12240 {136:90,}
maxmrqlatency = 174 
maxdqlatency = 0 
maxmflatency = 1652 
averagemflatency = 286 
max_icnt2mem_latency = 1237 
max_icnt2sh_latency = 4385104 
mrq_lat_table:515923 	24477 	14472 	27798 	37039 	15457 	2606 	44 	0 	0 	0 	0 	0 	0 	0 	0 	0 	0 	0 	0 	0 	0 	0 	0 	0 	0 	0 	0 	0 	0 	0 	0 	
dq_lat_table:0 	0 	0 	0 	0 	0 	0 	0 	0 	0 	0 	0 	0 	0 	0 	0 	0 	0 	0 	0 	0 	0 	0 	0 	0 	0 	0 	0 	0 	0 	0 	0 	
mf_lat_table:0 	0 	0 	0 	0 	0 	0 	2038430 	1853325 	262015 	2063 	0 	0 	0 	0 	0 	0 	0 	0 	0 	0 	0 	0 	0 	0 	0 	0 	0 	0 	0 	0 	0 	
icnt2mem_lat_table:0 	0 	0 	2780815 	341861 	226698 	305766 	356399 	137783 	6519 	82 	0 	0 	0 	0 	0 	0 	0 	0 	0 	0 	0 	0 	0 	
icnt2sh_lat_table:0 	0 	0 	239800 	2153149 	1538178 	158983 	187 	0 	0 	0 	0 	0 	0 	0 	288 	1072 	1922 	3870 	7952 	15792 	31472 	3168 	0 	
mf_lat_pw_table:0 	0 	0 	0 	0 	0 	0 	2336 	6392 	32 	6 	0 	0 	0 	0 	0 	0 	0 	0 	0 	0 	0 	0 	0 	0 	0 	0 	0 	0 	0 	0 	0 	
maximum concurrent accesses to same row:
dram[0]:        21        32        20        32        20        32        20        32        26        32        21        32        25        32        26        42 
dram[1]:        36        32        32        32        32        32        32        32        32        32        35        42        32        32        45        36 
dram[2]:        32        22        32        20        32        21        32        22        32        25        32        22        32        24        41        28 
dram[3]:        32        36        32        32        32        32        32        32        32        32        39        33        32        32        34        44 
dram[4]:        21        32        19        32        21        32        19        32        24        32        23        32        25        32        28        41 
dram[5]:        36        32        32        32        32        32        32        32        32        32        32        39        32        32        43        34 
maximum service time to same row:
dram[0]:     23036     39547     24295     31200     23022     35318     25654     36916     23792     37192     30061     42884     30228     49331     43220     58074 
dram[1]:     37550     40282     34542     35813     39231     35200     33254     39129     36502     40200     37452     46518     50894     51875     50078     57432 
dram[2]:     39538     23028     31159     24022     35339     22747     36939     26051     37249     23640     42888     30085     49308     32360     58169     42835 
dram[3]:     40277     37718     35797     34538     35226     39041     39150     33284     40166     36149     46488     37444     51872     50897     57482     50073 
dram[4]:     22892     39539     24177     31202     23005     35320     25858     36907     23648     37171     30052     42925     34706     49341     42544     58131 
dram[5]:     37484     40279     34631     35799     39131     38311     33141     39128     36439     40168     37460     46490     50896     51866     50183     57484 
average row accesses per activate:
dram[0]:  3.817096  9.794239  3.765947  8.249119  3.596886  8.402353  4.049557  9.536785  3.834888  9.597577  3.851351  7.789618  4.424041  9.085665  4.878344 10.650628 
dram[1]:  8.875000  9.459602  7.477754  7.981609  7.846491  8.323113  8.382877  9.149607  8.708029  9.753444  7.487212  7.648649  8.513029  9.085217 10.170297 10.846154 
dram[2]:  9.802469  3.942015  8.087457  3.704390  8.456804  3.674326  9.337334  4.028872  9.743170  3.878417  7.974008  3.806567  9.462660  4.488355 10.689728  4.834910 
dram[3]:  9.466135  8.763770  7.865385  7.496281  8.224680  7.828415  9.409703  8.565694  9.553307  8.840741  7.866848  7.387097  9.092174  8.525286 10.844350 10.064833 
dram[4]:  3.846972  9.725784  3.725806  8.218714  3.583945  8.192660  4.039916  9.542974  3.777267  9.495339  3.797145  7.829436  4.406043  9.413043  4.880312 10.750528 
dram[5]:  8.591127  9.550939  7.420610  7.864254  8.042697  8.035388  8.448979  9.179183  8.605769  9.603799  7.389678  7.602684  8.470016  8.979382  9.834933 10.762208 
average row locality = 637816/97264 = 6.557575
number of total memory accesses made:
dram[0]:         0         0         0         0         0         0         0         0         0         0         0         0         0         0         0         0 
dram[1]:         0         0         0         0         0         0         0         0         0         0         0         0         0         0         0         0 
dram[2]:         0         0         0         0         0         0         0         0         0         0         0         0         0         0         0         0 
dram[3]:         0         0         0         0         0         0         0         0         0         0         0         0         0         0         0         0 
dram[4]:         0         0         0         0         0         0         0         0         0         0         0         0         0         0         0         0 
dram[5]:         0         0         0         0         0         0         0         0         0         0         0         0         0         0         0         0 
total accesses: 0
min_bank_accesses = 0!
min_chip_accesses = 0!
number of total read accesses:
dram[0]:      7612      6436      6996      6336      7654      6476      7123      6360      7582      6491      5875      5018      5295      4493      4950      4387 
dram[1]:      6471      6438      6376      6261      6491      6396      6410      6332      6518      6441      5175      4976      4523      4520      4432      4372 
dram[2]:      6442      7601      6342      6916      6481      7655      6363      7035      6492      7590      5149      5692      4491      5270      4395      4919 
dram[3]:      6424      6460      6267      6372      6403      6500      6342      6401      6439      6521      5110      5041      4524      4522      4382      4419 
dram[4]:      7628      6425      6944      6340      7642      6480      7052      6355      7568      6491      5699      5008      5275      4492      4923      4381 
dram[5]:      6465      6421      6374      6266      6494      6379      6398      6327      6520      6438      5043      4980      4522      4522      4420      4365 
total reads: 572813
bank skew: 7655/4365 = 1.75
chip skew: 99084/91934 = 1.08
number of total write accesses:
dram[0]:       694       704       679       684       662       666       640       640       640       640       680       684       704       704       704       704 
dram[1]:       700       704       683       683       665       662       640       640       640       640       680       684       704       704       704       704 
dram[2]:       704       693       686       678       665       660       640       640       640       640       680       684       704       704       704       704 
dram[3]:       704       700       686       682       662       663       640       640       640       640       680       684       704       704       704       704 
dram[4]:       693       704       679       687       662       664       640       640       640       640       684       684       704       704       704       704 
dram[5]:       700       704       683       686       664       660       640       640       640       640       684       684       704       704       704       704 
total reads: 65003
bank skew: 704/640 = 1.10
chip skew: 10841/10826 = 1.00
average mf latency per bank:
dram[0]:       2505      1055      2597      1091      2582      1146      3048      1313      2927      1267      3237      1389      3363      1387      3360      1409
dram[1]:       1608      1167      1467      1226      1766      1256      1681      1448      1840      1446      1774      1555      2169      1498      1859      1604
dram[2]:       1054      2545      1091      2660      1133      2630      1346      3146      1222      2915      1383      3273      1367      3416      1447      3421
dram[3]:       1144      1585      1229      1453      1217      1853      1503      1684      1370      1814      1579      1788      1459      2222      1624      1846
dram[4]:       2470      1056      2715      1111      2551      1171      3185      1353      2953      1224      3353      1410      3381      1375      3600      1427
dram[5]:       1516      1166      1522      1263      1670      1289      1731      1533      1764      1370      1878      1631      2029      1462      2019      1626
maximum mf latency per bank:
dram[0]:       1311       816      1330       761      1280       786      1396       727      1396       791      1285       738      1250       701      1240       810
dram[1]:       1013       776       929       774      1019       756       948       824       933       836       806       900       812       845       981       830
dram[2]:        826      1493       845      1484       814      1502       746      1503       758      1652       764      1463       724      1485       844      1598
dram[3]:        876      1194       793      1282       786      1166       878      1145       845      1190       796      1077       820      1105       807      1179
dram[4]:       1369       781      1314       818      1331       801      1431       724      1360       748      1384       723      1311       698      1258       809
dram[5]:       1059       850       941       929      1033      1089       845       945       851       851       880       975       853       791       929       887

Number of Memory Banks Accessed per Memory Operation per Warp (from 0):
0	0	0	0	0	0	0	0	0	0	0	0	0	0	0	0	0	0	0	0	0	0	0	0	0	0	0	0	0	0	0	0	0	0	0	0	0	0	0	0	0	0	0	0	0	0	0	0	0	0	0	0	0	0	0	0	0	0	0	0	0	0	0	0	0	0	0	0	0	0	0	0	0	0	0	0	0	0	0	0	0	0	0	0	0	0	0	0	0	0	0	0	0	0	0	0	
Average # of Memory Banks Accessed per Memory Operation per Warp=-nan

position of mrq chosen
0	0	0	0	0	0	0	0	0	0	0	0	0	0	0	0	

average position of mrq chosen = -nan
Memory Partition 0: 
Cache L2_bank_000:
MSHR contents

Cache L2_bank_001:
MSHR contents

In Dram Latency Queue (total = 0): 
DRAM[0]: 16 bks, busW=4 BL=8 CL=12, tRRD=2 tCCD=6, tRCD=12 tRAS=28 tRP=12 tRC=40
n_cmd=5788338 n_nop=5533362 n_act=20493 n_pre=20477 n_req=109913 n_rd=198168 n_write=15838 bw_util=0.07394
n_activity=1734238 dram_eff=0.2468
bk0: 15224a 5687752i bk1: 12872a 5727142i bk2: 13992a 5692844i bk3: 12672a 5723663i bk4: 15308a 5682124i bk5: 12952a 5721734i bk6: 14246a 5691951i bk7: 12720a 5725356i bk8: 15164a 5686946i bk9: 12982a 5725361i bk10: 11750a 5704473i bk11: 10036a 5731221i bk12: 10590a 5715641i bk13: 8986a 5737911i bk14: 9900a 5723606i bk15: 8774a 5741725i 
dram_util_bins: 0 0 0 0 0 0 0 0 0 0
dram_eff_bins: 0 0 0 0 0 0 0 0 0 0
mrqq: max=14 avg=0.0798853
Memory Partition 1: 
Cache L2_bank_002:
MSHR contents

Cache L2_bank_003:
MSHR contents

In Dram Latency Queue (total = 0): 
DRAM[1]: 16 bks, busW=4 BL=8 CL=12, tRRD=2 tCCD=6, tRCD=12 tRAS=28 tRP=12 tRC=40
n_cmd=5788338 n_nop=5563992 n_act=11972 n_pre=11956 n_req=102969 n_rd=184264 n_write=16154 bw_util=0.06925
n_activity=1445830 dram_eff=0.2772
bk0: 12942a 5726136i bk1: 12876a 5725223i bk2: 12752a 5722874i bk3: 12522a 5722968i bk4: 12982a 5721607i bk5: 12792a 5722384i bk6: 12820a 5724250i bk7: 12664a 5724972i bk8: 13036a 5725906i bk9: 12882a 5727019i bk10: 10350a 5731402i bk11: 9952a 5732496i bk12: 9046a 5737515i bk13: 9040a 5738333i bk14: 8864a 5741029i bk15: 8744a 5741950i 
dram_util_bins: 0 0 0 0 0 0 0 0 0 0
dram_eff_bins: 0 0 0 0 0 0 0 0 0 0
mrqq: max=15 avg=0.0785756
Memory Partition 2: 
Cache L2_bank_004:
MSHR contents

Cache L2_bank_005:
MSHR contents

In Dram Latency Queue (total = 0): 
DRAM[2]: 16 bks, busW=4 BL=8 CL=12, tRRD=2 tCCD=6, tRCD=12 tRAS=28 tRP=12 tRC=40
n_cmd=5788338 n_nop=5534256 n_act=20295 n_pre=20279 n_req=109659 n_rd=197666 n_write=15842 bw_util=0.07377
n_activity=1731842 dram_eff=0.2466
bk0: 12884a 5728071i bk1: 15202a 5689043i bk2: 12684a 5723738i bk3: 13832a 5692673i bk4: 12962a 5723146i bk5: 15310a 5683180i bk6: 12726a 5724179i bk7: 14070a 5693345i bk8: 12984a 5725780i bk9: 15180a 5687169i bk10: 10298a 5730410i bk11: 11384a 5706381i bk12: 8982a 5738219i bk13: 10540a 5717025i bk14: 8790a 5741260i bk15: 9838a 5722988i 
dram_util_bins: 0 0 0 0 0 0 0 0 0 0
dram_eff_bins: 0 0 0 0 0 0 0 0 0 0
mrqq: max=16 avg=0.077681
Memory Partition 3: 
Cache L2_bank_006:
MSHR contents

Cache L2_bank_007:
MSHR contents

In Dram Latency Queue (total = 0): 
DRAM[3]: 16 bks, busW=4 BL=8 CL=12, tRRD=2 tCCD=6, tRCD=12 tRAS=28 tRP=12 tRC=40
n_cmd=5788338 n_nop=5564022 n_act=11961 n_pre=11945 n_req=102964 n_rd=184254 n_write=16156 bw_util=0.06925
n_activity=1446722 dram_eff=0.2771
bk0: 12848a 5725988i bk1: 12920a 5726186i bk2: 12534a 5723661i bk3: 12744a 5722490i bk4: 12806a 5722757i bk5: 13000a 5721437i bk6: 12684a 5725534i bk7: 12802a 5724203i bk8: 12878a 5726625i bk9: 13042a 5725515i bk10: 10220a 5731793i bk11: 10082a 5732133i bk12: 9048a 5738211i bk13: 9044a 5738254i bk14: 8764a 5741365i bk15: 8838a 5741478i 
dram_util_bins: 0 0 0 0 0 0 0 0 0 0
dram_eff_bins: 0 0 0 0 0 0 0 0 0 0
mrqq: max=15 avg=0.0790721
Memory Partition 4: 
Cache L2_bank_008:
MSHR contents

Cache L2_bank_009:
MSHR contents

In Dram Latency Queue (total = 0): 
DRAM[4]: 16 bks, busW=4 BL=8 CL=12, tRRD=2 tCCD=6, tRCD=12 tRAS=28 tRP=12 tRC=40
n_cmd=5788338 n_nop=5534125 n_act=20490 n_pre=20474 n_req=109536 n_rd=197406 n_write=15843 bw_util=0.07368
n_activity=1727316 dram_eff=0.2469
bk0: 15256a 5688029i bk1: 12850a 5726485i bk2: 13888a 5693402i bk3: 12680a 5723449i bk4: 15284a 5681661i bk5: 12960a 5721032i bk6: 14104a 5693795i bk7: 12710a 5724522i bk8: 15136a 5685524i bk9: 12982a 5724419i bk10: 11398a 5705816i bk11: 10016a 5731398i bk12: 10550a 5715681i bk13: 8984a 5738835i bk14: 9846a 5724008i bk15: 8762a 5742763i 
dram_util_bins: 0 0 0 0 0 0 0 0 0 0
dram_eff_bins: 0 0 0 0 0 0 0 0 0 0
mrqq: max=16 avg=0.0788361
Memory Partition 5: 
Cache L2_bank_010:
MSHR contents

Cache L2_bank_011:
MSHR contents

In Dram Latency Queue (total = 0): 
DRAM[5]: 16 bks, busW=4 BL=8 CL=12, tRRD=2 tCCD=6, tRCD=12 tRAS=28 tRP=12 tRC=40
n_cmd=5788338 n_nop=5564218 n_act=12053 n_pre=12037 n_req=102775 n_rd=183868 n_write=16162 bw_util=0.06911
n_activity=1445671 dram_eff=0.2767
bk0: 12930a 5725694i bk1: 12842a 5726068i bk2: 12748a 5722697i bk3: 12532a 5722898i bk4: 12988a 5722496i bk5: 12758a 5722367i bk6: 12796a 5723969i bk7: 12654a 5724521i bk8: 13040a 5724615i bk9: 12876a 5726063i bk10: 10086a 5732446i bk11: 9960a 5731559i bk12: 9044a 5737666i bk13: 9044a 5738463i bk14: 8840a 5740676i bk15: 8730a 5742049i 
dram_util_bins: 0 0 0 0 0 0 0 0 0 0
dram_eff_bins: 0 0 0 0 0 0 0 0 0 0
mrqq: max=14 avg=0.0784885

========= L2 cache stats =========
L2_cache_bank[0]: Access = 486958, Miss = 53087, Miss_rate = 0.109, Pending_hits = 134, Reservation_fails = 1064
L2_cache_bank[1]: Access = 266596, Miss = 45997, Miss_rate = 0.173, Pending_hits = 60, Reservation_fails = 47
L2_cache_bank[2]: Access = 352272, Miss = 46396, Miss_rate = 0.132, Pending_hits = 40, Reservation_fails = 156
L2_cache_bank[3]: Access = 279826, Miss = 45736, Miss_rate = 0.163, Pending_hits = 52, Reservation_fails = 71
L2_cache_bank[4]: Access = 267265, Miss = 46155, Miss_rate = 0.173, Pending_hits = 61, Reservation_fails = 43
L2_cache_bank[5]: Access = 486719, Miss = 52678, Miss_rate = 0.108, Pending_hits = 121, Reservation_fails = 953
L2_cache_bank[6]: Access = 279903, Miss = 45891, Miss_rate = 0.164, Pending_hits = 53, Reservation_fails = 63
L2_cache_bank[7]: Access = 351878, Miss = 46236, Miss_rate = 0.131, Pending_hits = 40, Reservation_fails = 49
L2_cache_bank[8]: Access = 486075, Miss = 52731, Miss_rate = 0.108, Pending_hits = 118, Reservation_fails = 617
L2_cache_bank[9]: Access = 266645, Miss = 45972, Miss_rate = 0.172, Pending_hits = 62, Reservation_fails = 45
L2_cache_bank[10]: Access = 351728, Miss = 46236, Miss_rate = 0.131, Pending_hits = 38, Reservation_fails = 46
L2_cache_bank[11]: Access = 280058, Miss = 45698, Miss_rate = 0.163, Pending_hits = 55, Reservation_fails = 62
L2_total_cache_accesses = 4155923
L2_total_cache_misses = 572813
L2_total_cache_miss_rate = 0.1378
L2_total_cache_pending_hits = 834
L2_total_cache_reservation_fails = 3216
L2_total_cache_breakdown:
	L2_cache_stats_breakdown[GLOBAL_ACC_R][HIT] = 3550668
	L2_cache_stats_breakdown[GLOBAL_ACC_R][HIT_RESERVED] = 464
	L2_cache_stats_breakdown[GLOBAL_ACC_R][MISS] = 539150
	L2_cache_stats_breakdown[GLOBAL_ACC_R][RESERVATION_FAIL] = 2081
	L2_cache_stats_breakdown[CONST_ACC_R][HIT] = 11
	L2_cache_stats_breakdown[CONST_ACC_R][HIT_RESERVED] = 3
	L2_cache_stats_breakdown[CONST_ACC_R][MISS] = 1
	L2_cache_stats_breakdown[CONST_ACC_R][RESERVATION_FAIL] = 109
	L2_cache_stats_breakdown[GLOBAL_ACC_W][HIT] = 31525
	L2_cache_stats_breakdown[GLOBAL_ACC_W][HIT_RESERVED] = 355
	L2_cache_stats_breakdown[GLOBAL_ACC_W][MISS] = 33656
	L2_cache_stats_breakdown[GLOBAL_ACC_W][RESERVATION_FAIL] = 694
	L2_cache_stats_breakdown[INST_ACC_R][HIT] = 72
	L2_cache_stats_breakdown[INST_ACC_R][HIT_RESERVED] = 12
	L2_cache_stats_breakdown[INST_ACC_R][MISS] = 6
	L2_cache_stats_breakdown[INST_ACC_R][RESERVATION_FAIL] = 332
L2_cache_data_port_util = 0.273
L2_cache_fill_port_util = 0.044

icnt_total_pkts_mem_to_simt=20517441
icnt_total_pkts_simt_to_mem=4286995
LD_mem_lat_dist  0 0 0 0 0 0 0 0 0 0 0 0 0 0 0 0 0 0 0 0 0 0 0 0 0 0 0
ST_mem_lat_dist  0 0 0 0 0 0 0 0 0 0 0 0 0 0 0 0 0 0 0 0 0 0 0 0 0 0 0
----------------------------Interconnect-DETAILS--------------------------------
Class 0:
Packet latency average = 28.533
	minimum = 6
	maximum = 1129
Network latency average = 22.0981
	minimum = 6
	maximum = 643
Slowest packet = 356
Flit latency average = 17.5508
	minimum = 6
	maximum = 643
Slowest flit = 6858
Fragmentation average = 0.00579967
	minimum = 0
	maximum = 458
Injected packet rate average = 0.0702027
	minimum = 0.0607958 (at node 16)
	maximum = 0.111048 (at node 15)
Accepted packet rate average = 0.0702027
	minimum = 0.0607958 (at node 16)
	maximum = 0.111048 (at node 15)
Injected flit rate average = 0.209501
	minimum = 0.0642486 (at node 11)
	maximum = 0.550254 (at node 15)
Accepted flit rate average= 0.209501
	minimum = 0.0632879 (at node 16)
	maximum = 0.316204 (at node 5)
Injected packet length average = 2.98423
Accepted packet length average = 2.98423
Total in-flight flits = 0 (0 measured)
====== Overall Traffic Statistics ======
====== Traffic class 0 ======
Packet latency average = 28.533 (1 samples)
	minimum = 6 (1 samples)
	maximum = 1129 (1 samples)
Network latency average = 22.0981 (1 samples)
	minimum = 6 (1 samples)
	maximum = 643 (1 samples)
Flit latency average = 17.5508 (1 samples)
	minimum = 6 (1 samples)
	maximum = 643 (1 samples)
Fragmentation average = 0.00579967 (1 samples)
	minimum = 0 (1 samples)
	maximum = 458 (1 samples)
Injected packet rate average = 0.0702027 (1 samples)
	minimum = 0.0607958 (1 samples)
	maximum = 0.111048 (1 samples)
Accepted packet rate average = 0.0702027 (1 samples)
	minimum = 0.0607958 (1 samples)
	maximum = 0.111048 (1 samples)
Injected flit rate average = 0.209501 (1 samples)
	minimum = 0.0642486 (1 samples)
	maximum = 0.550254 (1 samples)
Accepted flit rate average = 0.209501 (1 samples)
	minimum = 0.0632879 (1 samples)
	maximum = 0.316204 (1 samples)
Injected packet size average = 2.98423 (1 samples)
Accepted packet size average = 2.98423 (1 samples)
Hops average = 1 (1 samples)
----------------------------END-of-Interconnect-DETAILS-------------------------


gpgpu_simulation_time = 0 days, 0 hrs, 53 min, 54 sec (3234 sec)
gpgpu_simulation_rate = 486676 (inst/sec)
gpgpu_simulation_rate = 1355 (cycle/sec)
The GPU Elapsed Time:3233.277228 Sec.
The CPU Elapsed Time:3.215283 Sec.
Verifying
Verify Success!!
